@<TRIPOS>MOLECULE
*****
 20 22 0 0 0
SMALL
GASTEIGER

@<TRIPOS>ATOM
      1 C          -1.2567    1.7772    0.0000 C.ar    1  UNL1       -0.0606
      2 C           0.0529    1.2484   -0.0000 C.ar    1  UNL1       -0.0540
      3 C          -1.5073    3.1648    0.0000 C.ar    1  UNL1       -0.0540
      4 C          -0.3940    3.9951    0.0000 C.ar    1  UNL1       -0.0167
      5 C           0.8814    3.4468   -0.0000 C.ar    1  UNL1       -0.0036
      6 C           1.1642    2.1118   -0.0000 C.ar    1  UNL1       -0.0168
      7 C           1.8249    4.4652   -0.0000 C.ar    1  UNL1       -0.0167
      8 C           2.5302    1.7732   -0.0000 C.ar    1  UNL1       -0.0540
      9 C           3.5129    2.7876   -0.0000 C.ar    1  UNL1       -0.0606
     10 C           3.1793    4.1576   -0.0000 C.ar    1  UNL1       -0.0540
     11 C          -0.2464    5.4975    0.0000 C.2     1  UNL1       -0.0534
     12 C           1.0808    5.7786    0.0000 C.2     1  UNL1       -0.0534
     13 H          -2.5128    3.5677    0.0000 H       1  UNL1        0.0624
     14 H          -2.1019    1.0909    0.0000 H       1  UNL1        0.0618
     15 H           0.1964    0.1713   -0.0000 H       1  UNL1        0.0624
     16 H           2.8358    0.7304   -0.0000 H       1  UNL1        0.0624
     17 H           4.5637    2.5030   -0.0000 H       1  UNL1        0.0618
     18 H           3.9351    4.9336   -0.0000 H       1  UNL1        0.0624
     19 H          -1.0638    6.2011    0.0000 H       1  UNL1        0.0624
     20 H           1.5426    6.7533    0.0000 H       1  UNL1        0.0624
@<TRIPOS>BOND
     1     1     2   ar
     2     1     3   ar
     3     3     4   ar
     4     4     5   ar
     5     5     6   ar
     6     6     2   ar
     7     5     7   ar
     8     6     8   ar
     9     8     9   ar
    10     9    10   ar
    11    10     7   ar
    12     4    11    1
    13    11    12    2
    14    12     7    1
    15     3    13    1
    16     1    14    1
    17     2    15    1
    18     8    16    1
    19     9    17    1
    20    10    18    1
    21    11    19    1
    22    12    20    1
