@<TRIPOS>MOLECULE
*****
 22 22 0 0 0
SMALL
GASTEIGER

@<TRIPOS>ATOM
      1 C          -4.2615    2.1336   -0.5489 C.2     1  UNL1       -0.0841
      2 C          -2.9941    2.5587   -0.3889 C.2     1  UNL1        0.0590
      3 H          -4.5214    1.0805   -0.4750 H       1  UNL1        0.0543
      4 H          -5.0750    2.8171   -0.7701 H       1  UNL1        0.0543
      5 C          -1.9583    1.5097   -0.1265 C.2     1  UNL1        0.3389
      6 O          -2.1540    0.3062   -0.2354 O.2     1  UNL1       -0.2450
      7 O          -0.7875    2.0777    0.2605 O.3     1  UNL1       -0.4645
      8 C          -2.6843    3.9982   -0.5160 C.ar    1  UNL1       -0.0116
      9 C          -3.3865    4.9566    0.2320 C.ar    1  UNL1       -0.0538
     10 C          -1.6869    4.4368   -1.3993 C.ar    1  UNL1       -0.0538
     11 C          -1.3962    5.7973   -1.5289 C.ar    1  UNL1       -0.0612
     12 C          -2.1043    6.7367   -0.7827 C.ar    1  UNL1       -0.0617
     13 C          -3.0999    6.3174    0.0968 C.ar    1  UNL1       -0.0612
     14 H          -4.1621    4.6510    0.9310 H       1  UNL1        0.0624
     15 H          -1.1248    3.7216   -1.9962 H       1  UNL1        0.0624
     16 H          -0.6169    6.1221   -2.2135 H       1  UNL1        0.0618
     17 H          -1.8792    7.7951   -0.8859 H       1  UNL1        0.0618
     18 H          -3.6532    7.0492    0.6799 H       1  UNL1        0.0618
     19 C           0.2569    1.1400    0.5200 C.3     1  UNL1        0.0820
     20 H           1.1419    1.6977    0.8385 H       1  UNL1        0.0661
     21 H           0.5067    0.5858   -0.3904 H       1  UNL1        0.0661
     22 H          -0.0294    0.4558    1.3248 H       1  UNL1        0.0661
@<TRIPOS>BOND
     1     1     2    2
     2     1     3    1
     3     1     4    1
     4     2     5    1
     5     5     6    2
     6     5     7    1
     7     2     8    1
     8     8     9   ar
     9     8    10   ar
    10    10    11   ar
    11    11    12   ar
    12    12    13   ar
    13    13     9   ar
    14     9    14    1
    15    10    15    1
    16    11    16    1
    17    12    17    1
    18    13    18    1
    19     7    19    1
    20    19    20    1
    21    19    21    1
    22    19    22    1
