@<TRIPOS>MOLECULE
*****
 21 20 0 0 0
SMALL
GASTEIGER

@<TRIPOS>ATOM
      1 C          -0.0747   -0.3638   -0.0011 C.2     1  UNL1       -0.0919
      2 C          -0.1469    0.9733   -0.0446 C.2     1  UNL1        0.0154
      3 C           1.0138    1.8898   -0.0225 C.2     1  UNL1        0.3314
      4 O           2.1862    1.2120   -0.0176 O.3     1  UNL1       -0.4616
      5 O           0.8813    3.1044   -0.0154 O.2     1  UNL1       -0.2456
      6 C           3.3491    2.0495    0.0010 C.3     1  UNL1        0.0928
      7 C           4.5779    1.1480   -0.0461 C.3     1  UNL1       -0.0188
      8 H           3.3527    2.6463    0.9206 H       1  UNL1        0.0697
      9 H           3.3379    2.7156   -0.8698 H       1  UNL1        0.0697
     10 C           5.8723    1.9551   -0.0122 C.3     1  UNL1       -0.0528
     11 H           4.5386    0.5301   -0.9521 H       1  UNL1        0.0298
     12 H           4.5459    0.4459    0.7966 H       1  UNL1        0.0298
     13 C           7.0932    1.0513   -0.0733 C.3     1  UNL1       -0.0652
     14 H           5.9134    2.5539    0.9051 H       1  UNL1        0.0264
     15 H           5.8990    2.6532   -0.8570 H       1  UNL1        0.0264
     16 H           7.1118    0.3588    0.7743 H       1  UNL1        0.0230
     17 H           8.0095    1.6492   -0.0438 H       1  UNL1        0.0230
     18 H           7.1005    0.4641   -0.9972 H       1  UNL1        0.0230
     19 H          -0.9783   -0.9645   -0.0195 H       1  UNL1        0.0537
     20 H           0.8727   -0.8911    0.0555 H       1  UNL1        0.0537
     21 H          -1.1081    1.4736   -0.0957 H       1  UNL1        0.0683
@<TRIPOS>BOND
     1     1     2    2
     2     2     3    1
     3     3     4    1
     4     3     5    2
     5     4     6    1
     6     6     7    1
     7     6     8    1
     8     6     9    1
     9     7    10    1
    10     7    11    1
    11     7    12    1
    12    10    13    1
    13    10    14    1
    14    10    15    1
    15    13    16    1
    16    13    17    1
    17    13    18    1
    18     1    19    1
    19     1    20    1
    20     2    21    1
