@<TRIPOS>MOLECULE
*****
 12 11 0 0 0
SMALL
GASTEIGER

@<TRIPOS>ATOM
      1 C          -3.5775    2.4118    0.0030 C.2     1  UNL1       -0.0919
      2 C          -3.4737    3.7467   -0.0413 C.2     1  UNL1        0.0154
      3 H          -4.5521    1.9349   -0.0160 H       1  UNL1        0.0537
      4 H          -2.7075    1.7647    0.0587 H       1  UNL1        0.0537
      5 C          -2.2038    4.5047   -0.0212 C.2     1  UNL1        0.3311
      6 H          -4.3614    4.3680   -0.0964 H       1  UNL1        0.0683
      7 O          -2.1777    5.7258   -0.0615 O.2     1  UNL1       -0.2457
      8 O          -1.1291    3.6827    0.0448 O.3     1  UNL1       -0.4649
      9 C           0.1223    4.3692    0.0663 C.3     1  UNL1        0.0820
     10 H           0.9184    3.6211    0.1148 H       1  UNL1        0.0661
     11 H           0.1939    5.0087    0.9517 H       1  UNL1        0.0661
     12 H           0.2544    4.9560   -0.8482 H       1  UNL1        0.0661
@<TRIPOS>BOND
     1     1     2    2
     2     1     3    1
     3     1     4    1
     4     2     5    1
     5     2     6    1
     6     5     7    2
     7     5     8    1
     8     8     9    1
     9     9    10    1
    10     9    11    1
    11     9    12    1
