@<TRIPOS>MOLECULE
*****
 13 12 0 0 0
SMALL
GASTEIGER

@<TRIPOS>ATOM
      1 O           0.0278    2.2894    0.5950 O.3     1  UNL1       -0.4640
      2 C          -0.8258    1.2582    0.3557 C.2     1  UNL1        0.3487
      3 O          -0.4845    0.1254    0.0492 O.2     1  UNL1       -0.2442
      4 C          -2.2436    1.6768    0.5131 C.2     1  UNL1        0.1284
      5 C          -2.5993    2.9299    0.8514 C.2     1  UNL1       -0.0743
      6 H          -1.8700    3.7139    1.0306 H       1  UNL1        0.0550
      7 H          -3.6444    3.2094    0.9599 H       1  UNL1        0.0550
      8 C           1.4089    1.9474    0.4588 C.3     1  UNL1        0.0820
      9 H           2.0012    2.8417    0.6713 H       1  UNL1        0.0661
     10 H           1.6244    1.6240   -0.5644 H       1  UNL1        0.0661
     11 H           1.6839    1.1703    1.1787 H       1  UNL1        0.0661
     12 C          -3.2426    0.6874    0.2897 C.1     1  UNL1        0.1057
     13 N          -4.0978   -0.0790    0.1194 N.1     1  UNL1       -0.1907
@<TRIPOS>BOND
     1     1     2    1
     2     2     3    2
     3     2     4    1
     4     4     5    2
     5     5     6    1
     6     5     7    1
     7     1     8    1
     8     8     9    1
     9     8    10    1
    10     8    11    1
    11     4    12    1
    12    12    13    3
