@<TRIPOS>MOLECULE
*****
 8 7 0 0 0
SMALL
GASTEIGER

@<TRIPOS>ATOM
      1 O           0.1439    2.3489    0.6065 O.co2   1  UNL1       -0.2413
      2 C          -0.6360    1.3828    0.3817 C.2     1  UNL1        0.3790
      3 O          -0.3780    0.1871    0.0616 O.co2   1  UNL1       -0.2413
      4 C          -2.1378    1.6746    0.5089 C.2     1  UNL1        0.0196
      5 C          -2.6366    2.8738    0.8381 C.2     1  UNL1       -0.0918
      6 H          -1.9683    3.7084    1.0325 H       1  UNL1        0.0537
      7 H          -3.7036    3.0346    0.9164 H       1  UNL1        0.0537
      8 H          -2.8037    0.8399    0.3144 H       1  UNL1        0.0684
@<TRIPOS>BOND
     1     1     2   ar
     2     2     3   ar
     3     2     4    1
     4     4     5    2
     5     5     6    1
     6     5     7    1
     7     4     8    1
