@<TRIPOS>MOLECULE
*****
 64 63 0 0 0
SMALL
GASTEIGER

@<TRIPOS>ATOM
      1 C          -9.1064    2.6626    0.0788 C.2     1  UNL1       -0.0938
      2 C          -7.8697    3.1751    0.0616 C.2     1  UNL1       -0.0070
      3 H          -9.9781    3.3067    0.0562 H       1  UNL1        0.0536
      4 H          -9.2735    1.5890    0.1172 H       1  UNL1        0.0536
      5 C          -6.6862    2.2791    0.1004 C.2     1  UNL1        0.2363
      6 H          -7.7135    4.2451    0.0276 H       1  UNL1        0.0663
      7 O          -6.7766    1.0639    0.2052 O.2     1  UNL1       -0.2709
      8 N          -5.4992    2.9617   -0.0089 N.am    1  UNL1       -0.3118
      9 C          -4.2482    2.2405   -0.0905 C.3     1  UNL1        0.0119
     10 H          -5.5072    3.9490   -0.2229 H       1  UNL1        0.1490
     11 C          -3.0524    3.1814   -0.0145 C.3     1  UNL1       -0.0374
     12 H          -4.2455    1.6869   -1.0365 H       1  UNL1        0.0462
     13 H          -4.2176    1.5076    0.7241 H       1  UNL1        0.0462
     14 C          -1.7420    2.4012   -0.0817 C.3     1  UNL1       -0.0516
     15 H          -3.0946    3.7610    0.9161 H       1  UNL1        0.0280
     16 H          -3.0988    3.9045   -0.8385 H       1  UNL1        0.0280
     17 C          -0.5342    3.3343   -0.0298 C.3     1  UNL1       -0.0530
     18 H          -1.7113    1.8133   -1.0073 H       1  UNL1        0.0266
     19 H          -1.6938    1.6914    0.7532 H       1  UNL1        0.0266
     20 C           0.7676    2.5389   -0.1011 C.3     1  UNL1       -0.0531
     21 H          -0.5586    3.9217    0.8961 H       1  UNL1        0.0265
     22 H          -0.5795    4.0436   -0.8652 H       1  UNL1        0.0265
     23 C           1.9827    3.4619   -0.0658 C.3     1  UNL1       -0.0531
     24 H           0.7850    1.9441   -1.0226 H       1  UNL1        0.0265
     25 H           0.8160    1.8350    0.7388 H       1  UNL1        0.0265
     26 C           3.2788    2.6594   -0.1597 C.3     1  UNL1       -0.0531
     27 H           1.9760    4.0464    0.8623 H       1  UNL1        0.0265
     28 H           1.9294    4.1746   -0.8978 H       1  UNL1        0.0265
     29 C           4.4947    3.5810   -0.1353 C.3     1  UNL1       -0.0531
     30 H           3.2818    2.0702   -1.0848 H       1  UNL1        0.0265
     31 H           3.3357    1.9510    0.6757 H       1  UNL1        0.0265
     32 C           5.7932    2.7836   -0.2370 C.3     1  UNL1       -0.0531
     33 H           4.4933    4.1667    0.7922 H       1  UNL1        0.0265
     34 H           4.4342    4.2935   -0.9672 H       1  UNL1        0.0265
     35 C           7.0010    3.7155   -0.2006 C.3     1  UNL1       -0.0531
     36 H           5.8005    2.2043   -1.1683 H       1  UNL1        0.0265
     37 H           5.8532    2.0675    0.5914 H       1  UNL1        0.0265
     38 C           8.3120    2.9362   -0.2813 C.3     1  UNL1       -0.0531
     39 H           6.9812    4.3051    0.7242 H       1  UNL1        0.0265
     40 H           6.9429    4.4245   -1.0358 H       1  UNL1        0.0265
     41 C           9.5025    3.8901   -0.2238 C.3     1  UNL1       -0.0531
     42 H           8.3431    2.3585   -1.2130 H       1  UNL1        0.0265
     43 H           8.3698    2.2206    0.5476 H       1  UNL1        0.0265
     44 C          10.8313    3.1410   -0.2956 C.3     1  UNL1       -0.0531
     45 H           9.4605    4.4727    0.7048 H       1  UNL1        0.0265
     46 H           9.4386    4.6040   -1.0544 H       1  UNL1        0.0265
     47 C          11.9994    4.1242   -0.2450 C.3     1  UNL1       -0.0531
     48 H          10.8771    2.5570   -1.2226 H       1  UNL1        0.0265
     49 H          10.9047    2.4335    0.5391 H       1  UNL1        0.0265
     50 C          13.3457    3.4093   -0.3393 C.3     1  UNL1       -0.0531
     51 H          11.9542    4.6994    0.6881 H       1  UNL1        0.0265
     52 H          11.9077    4.8417   -1.0697 H       1  UNL1        0.0265
     53 C          14.4936    4.4189   -0.3229 C.3     1  UNL1       -0.0533
     54 H          13.3861    2.8188   -1.2626 H       1  UNL1        0.0265
     55 H          13.4534    2.7103    0.4988 H       1  UNL1        0.0265
     56 C          15.8502    3.7283   -0.4399 C.3     1  UNL1       -0.0559
     57 H          14.4563    5.0018    0.6056 H       1  UNL1        0.0265
     58 H          14.3700    5.1264   -1.1521 H       1  UNL1        0.0265
     59 C          16.9833    4.7418   -0.4498 C.3     1  UNL1       -0.0653
     60 H          15.8890    3.1356   -1.3611 H       1  UNL1        0.0263
     61 H          15.9901    3.0365    0.3987 H       1  UNL1        0.0263
     62 H          16.8860    5.4291   -1.2965 H       1  UNL1        0.0230
     63 H          17.9479    4.2323   -0.5345 H       1  UNL1        0.0230
     64 H          16.9891    5.3322    0.4721 H       1  UNL1        0.0230
@<TRIPOS>BOND
     1     1     2    2
     2     1     3    1
     3     1     4    1
     4     2     5    1
     5     2     6    1
     6     5     7    2
     7     5     8   am
     8     8     9    1
     9     8    10    1
    10     9    11    1
    11     9    12    1
    12     9    13    1
    13    11    14    1
    14    11    15    1
    15    11    16    1
    16    14    17    1
    17    14    18    1
    18    14    19    1
    19    17    20    1
    20    17    21    1
    21    17    22    1
    22    20    23    1
    23    20    24    1
    24    20    25    1
    25    23    26    1
    26    23    27    1
    27    23    28    1
    28    26    29    1
    29    26    30    1
    30    26    31    1
    31    29    32    1
    32    29    33    1
    33    29    34    1
    34    32    35    1
    35    32    36    1
    36    32    37    1
    37    35    38    1
    38    35    39    1
    39    35    40    1
    40    38    41    1
    41    38    42    1
    42    38    43    1
    43    41    44    1
    44    41    45    1
    45    41    46    1
    46    44    47    1
    47    44    48    1
    48    44    49    1
    49    47    50    1
    50    47    51    1
    51    47    52    1
    52    50    53    1
    53    50    54    1
    54    50    55    1
    55    53    56    1
    56    53    57    1
    57    53    58    1
    58    56    59    1
    59    56    60    1
    60    56    61    1
    61    59    62    1
    62    59    63    1
    63    59    64    1
