@<TRIPOS>MOLECULE
*****
 7 6 0 0 0
SMALL
GASTEIGER

@<TRIPOS>ATOM
      1 C           1.1926   -0.2271   -0.0456 C.2     1  UNL1       -0.0885
      2 C           2.4949    0.0775    0.0156 C.2     1  UNL1        0.0083
      3 C           2.9592    1.3947    0.2802 C.1     1  UNL1        0.0908
      4 N           3.3425    2.4677    0.4959 N.1     1  UNL1       -0.1915
      5 H           0.8696   -1.2432   -0.2498 H       1  UNL1        0.0542
      6 H           0.4204    0.5229    0.1051 H       1  UNL1        0.0542
      7 H           3.2452   -0.6900   -0.1386 H       1  UNL1        0.0727
@<TRIPOS>BOND
     1     1     2    2
     2     2     3    1
     3     3     4    3
     4     1     5    1
     5     1     6    1
     6     2     7    1
