@<TRIPOS>MOLECULE
*****
 19 20 0 0 0
SMALL
GASTEIGER

@<TRIPOS>ATOM
      1 C           1.4683   -0.2195    0.1682 C.ar    1  UNL1       -0.0606
      2 C           2.0285    1.0420    0.3426 C.ar    1  UNL1       -0.0597
      3 C           1.2200    2.1834    0.3336 C.ar    1  UNL1       -0.0352
      4 C          -0.1716    2.0561    0.1467 C.ar    1  UNL1        0.0795
      5 C          -0.7111    0.7803   -0.0262 C.ar    1  UNL1        0.0400
      6 C           0.0911   -0.3730   -0.0190 C.ar    1  UNL1       -0.0459
      7 H           2.1087   -1.0994    0.1773 H       1  UNL1        0.0618
      8 H           3.1016    1.1448    0.4871 H       1  UNL1        0.0618
      9 H          -0.3448   -1.3582   -0.1550 H       1  UNL1        0.0629
     10 H           1.6537    3.1692    0.4694 H       1  UNL1        0.0639
     11 S          -2.4139    0.9187   -0.2308 S.2     1  UNL1       -0.0607
     12 C          -2.2955    2.6240   -0.0761 C.ar    1  UNL1        0.1398
     13 N          -1.0846    3.0964    0.1162 N.ar    1  UNL1       -0.2324
     14 S          -3.7304    3.6374   -0.1750 S.3     1  UNL1       -0.0712
     15 C          -3.0335    5.2062    0.0419 C.2     1  UNL1       -0.0290
     16 C          -3.7944    6.3070    0.0356 C.2     1  UNL1       -0.0921
     17 H          -1.9614    5.3107    0.1864 H       1  UNL1        0.0688
     18 H          -4.8702    6.2678   -0.1040 H       1  UNL1        0.0540
     19 H          -3.3446    7.2850    0.1728 H       1  UNL1        0.0540
@<TRIPOS>BOND
     1     1     2   ar
     2     2     3   ar
     3     3     4   ar
     4     4     5   ar
     5     5     6   ar
     6     6     1   ar
     7     1     7    1
     8     2     8    1
     9     6     9    1
    10     3    10    1
    11     5    11   ar
    12    11    12   ar
    13    12    13   ar
    14    13     4   ar
    15    12    14    1
    16    14    15    1
    17    15    16    2
    18    15    17    1
    19    16    18    1
    20    16    19    1
