@<TRIPOS>MOLECULE
*****
 16 15 0 0 0
SMALL
GASTEIGER

@<TRIPOS>ATOM
      1 C          -1.2079    0.0352   -0.1503 C.2     1  UNL1        0.0225
      2 C          -0.9517    1.3444   -0.0105 C.2     1  UNL1       -0.0556
      3 C          -1.9881    2.3497   -0.0596 C.2     1  UNL1       -0.0687
      4 C          -1.7397    3.6571    0.0791 C.2     1  UNL1       -0.0987
      5 H          -3.0142    2.0224   -0.2165 H       1  UNL1        0.0612
      6 H          -0.7378    4.0438    0.2378 H       1  UNL1        0.0535
      7 H          -2.5494    4.3793    0.0355 H       1  UNL1        0.0535
      8 H           0.0674    1.6923    0.1472 H       1  UNL1        0.0620
      9 C          -0.1844   -1.0297   -0.1078 C.2     1  UNL1        0.3317
     10 H          -2.2155   -0.3344   -0.3084 H       1  UNL1        0.0689
     11 O          -0.4745   -2.2096   -0.2412 O.2     1  UNL1       -0.2456
     12 O           1.0597   -0.5319    0.0908 O.3     1  UNL1       -0.4649
     13 C           2.0806   -1.5289    0.1386 C.3     1  UNL1        0.0820
     14 H           3.0379   -1.0260    0.3012 H       1  UNL1        0.0661
     15 H           2.1317   -2.0718   -0.8105 H       1  UNL1        0.0661
     16 H           1.9057   -2.2178    0.9710 H       1  UNL1        0.0661
@<TRIPOS>BOND
     1     1     2    2
     2     2     3    1
     3     3     4    2
     4     3     5    1
     5     4     6    1
     6     4     7    1
     7     2     8    1
     8     1     9    1
     9     1    10    1
    10     9    11    2
    11     9    12    1
    12    12    13    1
    13    13    14    1
    14    13    15    1
    15    13    16    1
