@<TRIPOS>MOLECULE
*****
 20 19 0 0 0
SMALL
GASTEIGER

@<TRIPOS>ATOM
      1 C          -3.4145    2.3839   -0.0000 C.2     1  UNL1        0.0229
      2 C          -2.2493    3.0526   -0.0000 C.2     1  UNL1       -0.0553
      3 C          -0.9058    2.5228    0.0000 C.2     1  UNL1       -0.0657
      4 H          -2.3133    4.1414   -0.0000 H       1  UNL1        0.0620
      5 C           0.1821    3.3089    0.0000 C.2     1  UNL1       -0.0871
      6 H          -0.7707    1.4437    0.0000 H       1  UNL1        0.0614
      7 C           1.5818    2.7834    0.0000 C.3     1  UNL1       -0.0465
      8 H           0.0828    4.3917   -0.0000 H       1  UNL1        0.0569
      9 H           1.6152    1.6893    0.0000 H       1  UNL1        0.0272
     10 H           2.1133    3.1409    0.8872 H       1  UNL1        0.0272
     11 H           2.1133    3.1409   -0.8872 H       1  UNL1        0.0272
     12 C          -3.6048    0.9135   -0.0000 C.2     1  UNL1        0.3366
     13 H          -4.3028    2.9966   -0.0000 H       1  UNL1        0.0689
     14 O          -4.8952    0.4524    0.0000 O.3     1  UNL1       -0.4312
     15 O          -2.6700    0.1211   -0.0000 O.2     1  UNL1       -0.2452
     16 C          -6.1397    1.1140    0.0000 C.2     1  UNL1        0.0889
     17 C          -7.2787    0.4194   -0.0000 C.2     1  UNL1       -0.0635
     18 H          -6.1145    2.1887    0.0000 H       1  UNL1        0.1024
     19 H          -7.2697   -0.6662   -0.0000 H       1  UNL1        0.0565
     20 H          -8.2407    0.9200    0.0000 H       1  UNL1        0.0565
@<TRIPOS>BOND
     1     1     2    2
     2     2     3    1
     3     2     4    1
     4     3     5    2
     5     3     6    1
     6     5     7    1
     7     5     8    1
     8     7     9    1
     9     7    10    1
    10     7    11    1
    11     1    12    1
    12     1    13    1
    13    12    14    1
    14    12    15    2
    15    14    16    1
    16    16    17    2
    17    16    18    1
    18    17    19    1
    19    17    20    1
