@<TRIPOS>MOLECULE
*****
 17 17 0 0 0
SMALL
GASTEIGER

@<TRIPOS>ATOM
      1 C           1.1993    2.0576    0.3207 C.ar    1  UNL1       -0.0546
      2 C           2.1695    3.0431    0.5245 C.ar    1  UNL1       -0.0612
      3 C           1.7988    4.3826    0.5872 C.ar    1  UNL1       -0.0617
      4 C           0.4596    4.7353    0.4463 C.ar    1  UNL1       -0.0612
      5 C          -0.5113    3.7487    0.2423 C.ar    1  UNL1       -0.0546
      6 C          -0.1562    2.3941    0.1764 C.ar    1  UNL1       -0.0244
      7 H           1.5210    1.0189    0.2764 H       1  UNL1        0.0623
      8 H           3.2138    2.7619    0.6339 H       1  UNL1        0.0618
      9 H           2.5517    5.1503    0.7456 H       1  UNL1        0.0618
     10 H           0.1671    5.7814    0.4949 H       1  UNL1        0.0618
     11 H          -1.5426    4.0714    0.1380 H       1  UNL1        0.0623
     12 C          -1.1246    1.3018   -0.0359 C.2     1  UNL1       -0.0444
     13 C          -2.4515    1.4314   -0.1936 C.2     1  UNL1        0.0159
     14 H          -0.6932    0.3007   -0.0633 H       1  UNL1        0.0630
     15 C          -3.2910    0.3010   -0.3927 C.1     1  UNL1        0.0914
     16 H          -2.9486    2.3922   -0.1779 H       1  UNL1        0.0733
     17 N          -3.9778   -0.6192   -0.5552 N.1     1  UNL1       -0.1915
@<TRIPOS>BOND
     1     1     2   ar
     2     2     3   ar
     3     3     4   ar
     4     4     5   ar
     5     5     6   ar
     6     6     1   ar
     7     1     7    1
     8     2     8    1
     9     3     9    1
    10     4    10    1
    11     5    11    1
    12     6    12    1
    13    12    13    2
    14    12    14    1
    15    13    15    1
    16    13    16    1
    17    15    17    3
