@<TRIPOS>MOLECULE
*****
 11 10 0 0 0
SMALL
GASTEIGER

@<TRIPOS>ATOM
      1 C          -3.3326    5.3461    0.7859 C.3     1  UNL1       -0.0464
      2 C          -3.6121    3.8981    0.5430 C.2     1  UNL1       -0.0841
      3 H          -2.2837    5.5284    1.0409 H       1  UNL1        0.0272
      4 H          -3.9527    5.7120    1.6099 H       1  UNL1        0.0272
      5 H          -3.5722    5.9271   -0.1099 H       1  UNL1        0.0272
      6 C          -2.6759    2.9428    0.6268 C.2     1  UNL1       -0.0266
      7 H          -4.6396    3.6479    0.2878 H       1  UNL1        0.0570
      8 C          -3.0179    1.5288    0.3746 C.2     1  UNL1        0.1428
      9 H          -1.6412    3.1464    0.8774 H       1  UNL1        0.0646
     10 O          -2.1718    0.6466    0.4471 O.2     1  UNL1       -0.2963
     11 H          -4.0693    1.3163    0.1199 H       1  UNL1        0.1075
@<TRIPOS>BOND
     1     1     2    1
     2     1     3    1
     3     1     4    1
     4     1     5    1
     5     2     6    2
     6     2     7    1
     7     6     8    1
     8     6     9    1
     9     8    10    2
    10     8    11    1
