@<TRIPOS>MOLECULE
*****
 20 19 0 0 0
SMALL
GASTEIGER

@<TRIPOS>ATOM
      1 C          -3.4100    5.8830    0.1868 C.3     1  UNL1       -0.0456
      2 C          -3.6867    4.4192    0.3441 C.2     1  UNL1       -0.0698
      3 H          -3.9399    6.4367    0.9691 H       1  UNL1        0.0272
      4 H          -3.7781    6.2306   -0.7830 H       1  UNL1        0.0272
      5 H          -2.3526    6.1419    0.2766 H       1  UNL1        0.0272
      6 C          -2.7977    3.4028    0.3142 C.2     1  UNL1        0.0968
      7 H          -4.7403    4.2006    0.5111 H       1  UNL1        0.0578
      8 C          -3.2052    1.9874    0.5337 C.2     1  UNL1        0.3420
      9 O          -2.4149    1.0541    0.5201 O.2     1  UNL1       -0.2449
     10 O          -4.5407    1.8698    0.7526 O.3     1  UNL1       -0.4644
     11 C          -1.3550    3.6883    0.0509 C.2     1  UNL1        0.1666
     12 C          -0.3327    3.0887    0.9815 C.3     1  UNL1       -0.0012
     13 H           0.4436    3.8326    1.1832 H       1  UNL1        0.0309
     14 H           0.1141    2.2065    0.5168 H       1  UNL1        0.0309
     15 H          -0.7845    2.8150    1.9389 H       1  UNL1        0.0309
     16 O          -1.0130    4.3939   -0.8986 O.2     1  UNL1       -0.2921
     17 C          -4.9864    0.5267    0.9502 C.3     1  UNL1        0.0820
     18 H          -4.7433   -0.0925    0.0809 H       1  UNL1        0.0661
     19 H          -6.0734    0.5448    1.0679 H       1  UNL1        0.0661
     20 H          -4.5451    0.1095    1.8605 H       1  UNL1        0.0661
@<TRIPOS>BOND
     1     1     2    1
     2     1     3    1
     3     1     4    1
     4     1     5    1
     5     2     6    2
     6     2     7    1
     7     6     8    1
     8     8     9    2
     9     8    10    1
    10     6    11    1
    11    11    12    1
    12    12    13    1
    13    12    14    1
    14    12    15    1
    15    11    16    2
    16    10    17    1
    17    17    18    1
    18    17    19    1
    19    17    20    1
