@<TRIPOS>MOLECULE
*****
 6 5 0 0 0
SMALL
GASTEIGER

@<TRIPOS>ATOM
      1 C          -0.3175    3.7536   -1.5046 C.2     1  UNL1        0.1176
      2 C          -0.3512    2.4201   -1.5686 C.2     1  UNL1        0.0342
      3 CL         -0.6527    4.6826   -2.9258 Cl      1  UNL1       -0.0696
      4 CL          0.0474    4.6269   -0.0615 Cl      1  UNL1       -0.0696
      5 CL         -0.0476    1.3441   -0.2686 Cl      1  UNL1       -0.0896
      6 H          -0.5808    1.8781   -2.4771 H       1  UNL1        0.0770
@<TRIPOS>BOND
     1     1     2    2
     2     1     3    1
     3     1     4    1
     4     2     5    1
     5     2     6    1
