@<TRIPOS>MOLECULE
*****
 30 29 0 0 0
SMALL
GASTEIGER

@<TRIPOS>ATOM
      1 C           0.2168    1.9384   -1.0836 C.2     1  UNL1        0.0292
      2 C           0.3788    0.7952   -0.4049 C.2     1  UNL1        0.0292
      3 C           0.4073    3.2210   -0.3875 C.2     1  UNL1        0.3324
      4 H          -0.0583    1.9657   -2.1316 H       1  UNL1        0.0691
      5 C           0.1827   -0.4872   -1.0995 C.2     1  UNL1        0.3324
      6 H           0.6435    0.7681    0.6459 H       1  UNL1        0.0691
      7 O          -0.0096   -0.6104   -2.2973 O.2     1  UNL1       -0.2456
      8 O           0.8200    3.3416    0.7536 O.2     1  UNL1       -0.2456
      9 O           0.0335    4.2141   -1.2292 O.3     1  UNL1       -0.4588
     10 O           0.2412   -1.4769   -0.1765 O.3     1  UNL1       -0.4588
     11 C           0.0603   -2.8156   -0.6751 C.3     1  UNL1        0.0978
     12 C           0.6791   -3.7609    0.3478 C.3     1  UNL1       -0.0280
     13 H           1.7413   -3.5313    0.4850 H       1  UNL1        0.0265
     14 H           0.5855   -4.8048    0.0334 H       1  UNL1        0.0265
     15 H           0.2037   -3.6451    1.3283 H       1  UNL1        0.0265
     16 C           0.1437    5.5536   -0.7124 C.3     1  UNL1        0.0978
     17 C           0.2112    6.4913   -1.9120 C.3     1  UNL1       -0.0280
     18 H           1.0701    6.2405   -2.5438 H       1  UNL1        0.0265
     19 H           0.3029    7.5352   -1.5970 H       1  UNL1        0.0265
     20 H          -0.6808    6.3908   -2.5404 H       1  UNL1        0.0265
     21 C          -1.0694    5.8773    0.1533 C.3     1  UNL1       -0.0280
     22 H           1.0686    5.6614   -0.1326 H       1  UNL1        0.0728
     23 H          -2.0001    5.7272   -0.4050 H       1  UNL1        0.0265
     24 H          -1.0361    6.9113    0.5103 H       1  UNL1        0.0265
     25 H          -1.1172    5.2162    1.0245 H       1  UNL1        0.0265
     26 C          -1.4265   -3.1093   -0.8456 C.3     1  UNL1       -0.0280
     27 H           0.5877   -2.9396   -1.6289 H       1  UNL1        0.0728
     28 H          -1.5913   -4.1419   -1.1687 H       1  UNL1        0.0265
     29 H          -1.8753   -2.4427   -1.5890 H       1  UNL1        0.0265
     30 H          -1.9686   -2.9428    0.0918 H       1  UNL1        0.0265
@<TRIPOS>BOND
     1     1     2    2
     2     1     3    1
     3     1     4    1
     4     2     5    1
     5     2     6    1
     6     5     7    2
     7     3     8    2
     8     3     9    1
     9     5    10    1
    10    10    11    1
    11    11    12    1
    12    12    13    1
    13    12    14    1
    14    12    15    1
    15     9    16    1
    16    16    17    1
    17    17    18    1
    18    17    19    1
    19    17    20    1
    20    16    21    1
    21    16    22    1
    22    21    23    1
    23    21    24    1
    24    21    25    1
    25    11    26    1
    26    11    27    1
    27    26    28    1
    28    26    29    1
    29    26    30    1
