@<TRIPOS>MOLECULE
*****
 14 13 0 0 0
SMALL
GASTEIGER

@<TRIPOS>ATOM
      1 C           0.4040    3.3522   -3.8813 C.2     1  UNL1       -0.0987
      2 C           0.6191    2.0330   -3.9383 C.2     1  UNL1       -0.0689
      3 C           0.4815    1.1641   -2.7929 C.2     1  UNL1       -0.0623
      4 C           0.6978   -0.1584   -2.8525 C.2     1  UNL1       -0.0623
      5 C           0.5598   -1.0263   -1.7064 C.2     1  UNL1       -0.0689
      6 C           0.7745   -2.3459   -1.7613 C.2     1  UNL1       -0.0987
      7 H           0.2676   -0.5775   -0.7592 H       1  UNL1        0.0612
      8 H           1.0677   -2.8470   -2.6784 H       1  UNL1        0.0535
      9 H           0.6588   -2.9598   -0.8735 H       1  UNL1        0.0535
     10 H           0.5193    3.9675   -4.7682 H       1  UNL1        0.0535
     11 H           0.1108    3.8519   -2.9635 H       1  UNL1        0.0535
     12 H           0.9113    1.5853   -4.8859 H       1  UNL1        0.0612
     13 H           0.1887    1.6263   -1.8523 H       1  UNL1        0.0617
     14 H           0.9905   -0.6210   -3.7929 H       1  UNL1        0.0617
@<TRIPOS>BOND
     1     1     2    2
     2     2     3    1
     3     3     4    2
     4     4     5    1
     5     5     6    2
     6     5     7    1
     7     6     8    1
     8     6     9    1
     9     1    10    1
    10     1    11    1
    11     2    12    1
    12     3    13    1
    13     4    14    1
