@<TRIPOS>MOLECULE
*****
 15 14 0 0 0
SMALL
GASTEIGER

@<TRIPOS>ATOM
      1 O          -0.1028    2.1049   -4.7144 O.3     1  UNL1       -0.4804
      2 C          -0.1429    1.4349   -3.5401 C.2     1  UNL1        0.3093
      3 H           0.7703    2.1102   -5.1518 H       1  UNL1        0.2951
      4 C           1.2134    0.9104   -3.1064 C.3     1  UNL1        0.0760
      5 C           1.0202   -0.1225   -2.0383 C.2     1  UNL1        0.0399
      6 H           1.8048    1.7571   -2.7420 H       1  UNL1        0.0428
      7 H           1.7298    0.4687   -3.9654 H       1  UNL1        0.0428
      8 C           1.3529    0.0189   -0.7450 C.2     1  UNL1       -0.0882
      9 H           1.7940    0.9380   -0.3710 H       1  UNL1        0.0540
     10 H           1.2081   -0.7849   -0.0270 H       1  UNL1        0.0540
     11 C           0.4334   -1.3975   -2.5025 C.2     1  UNL1        0.3327
     12 O          -1.1728    1.3222   -2.8887 O.2     1  UNL1       -0.2506
     13 O           0.9165   -2.0563   -3.4063 O.2     1  UNL1       -0.2455
     14 O          -0.7053   -1.7033   -1.8550 O.3     1  UNL1       -0.4773
     15 H          -1.0683   -0.9393   -1.3613 H       1  UNL1        0.2954
@<TRIPOS>BOND
     1     1     2    1
     2     1     3    1
     3     2     4    1
     4     4     5    1
     5     4     6    1
     6     4     7    1
     7     5     8    2
     8     8     9    1
     9     8    10    1
    10     5    11    1
    11     2    12    2
    12    11    13    2
    13    11    14    1
    14    14    15    1
