@<TRIPOS>MOLECULE
*****
 13 13 0 0 0
SMALL
GASTEIGER

@<TRIPOS>ATOM
      1 C           0.1843    1.9880   -2.0676 C.ar    1  UNL1        0.0457
      2 C          -0.1666    3.0489   -1.2684 C.ar    1  UNL1        0.0287
      3 N          -0.3851    2.5316   -0.0082 N.ar    1  UNL1       -0.3131
      4 H          -0.2777    4.1024   -1.4801 H       1  UNL1        0.0828
      5 C          -0.1491    1.1771   -0.1308 C.ar    1  UNL1        0.0999
      6 N           0.1928    0.8259   -1.3511 N.ar    1  UNL1       -0.2437
      7 H           0.4309    2.0028   -3.1215 H       1  UNL1        0.0845
      8 H          -0.2425    0.4976    0.7048 H       1  UNL1        0.1032
      9 C          -0.7628    3.2626    1.1181 C.2     1  UNL1        0.0035
     10 C          -0.9813    2.7867    2.3516 C.2     1  UNL1       -0.0821
     11 H          -0.8836    4.3283    0.9398 H       1  UNL1        0.0807
     12 H          -0.8816    1.7375    2.6085 H       1  UNL1        0.0549
     13 H          -1.2735    3.4596    3.1533 H       1  UNL1        0.0549
@<TRIPOS>BOND
     1     1     2   ar
     2     2     3   ar
     3     2     4    1
     4     3     5   ar
     5     5     6   ar
     6     6     1   ar
     7     1     7    1
     8     5     8    1
     9     3     9    1
    10     9    10    2
    11     9    11    1
    12    10    12    1
    13    10    13    1
