@<TRIPOS>MOLECULE
*****
 9 9 0 0 0
SMALL
GASTEIGER

@<TRIPOS>ATOM
      1 C           0.9638    3.3608   -6.2580 C.2     1  UNL1        0.0297
      2 C           1.0286    2.1406   -5.7420 C.2     1  UNL1        0.0297
      3 C           0.5729    4.2655   -5.1880 C.2     1  UNL1        0.3397
      4 H           1.1536    3.6787   -7.2674 H       1  UNL1        0.0691
      5 C           0.6801    2.2445   -4.3335 C.2     1  UNL1        0.3397
      6 H           1.2843    1.2150   -6.2258 H       1  UNL1        0.0691
      7 O           0.4183    3.5390   -4.0630 O.3     1  UNL1       -0.3869
      8 O           0.6387    1.3121   -3.5544 O.2     1  UNL1       -0.2451
      9 O           0.4183    5.4652   -5.3103 O.2     1  UNL1       -0.2451
@<TRIPOS>BOND
     1     1     2    2
     2     1     3    1
     3     1     4    1
     4     2     5    1
     5     2     6    1
     6     5     7    1
     7     7     3    1
     8     5     8    2
     9     3     9    2
