@<TRIPOS>MOLECULE
*****
 11 10 0 0 0
SMALL
GASTEIGER

@<TRIPOS>ATOM
      1 O           1.1153    0.6750   -3.4671 O.co2   1  UNL1       -0.2410
      2 C           0.9078   -0.3278   -2.7251 C.2     1  UNL1        0.3818
      3 C           1.5445   -1.6692   -3.2030 C.2     1  UNL1        0.0306
      4 C           2.1774   -1.7517   -4.3859 C.2     1  UNL1       -0.0889
      5 H           2.2500   -0.8782   -5.0290 H       1  UNL1        0.0540
      6 H           2.6237   -2.6743   -4.7333 H       1  UNL1        0.0540
      7 C           1.4188   -2.8397   -2.2778 C.3     1  UNL1       -0.0334
      8 H           1.7591   -2.5787   -1.2704 H       1  UNL1        0.0280
      9 H           2.0233   -3.6896   -2.6129 H       1  UNL1        0.0280
     10 H           0.3771   -3.1716   -2.2218 H       1  UNL1        0.0280
     11 O           0.2564   -0.4036   -1.6441 O.co2   1  UNL1       -0.2410
@<TRIPOS>BOND
     1     1     2   ar
     2     2     3    1
     3     3     4    2
     4     4     5    1
     5     4     6    1
     6     3     7    1
     7     7     8    1
     8     7     9    1
     9     7    10    1
    10     2    11   ar
