@<TRIPOS>MOLECULE
*****
 24 23 0 0 0
SMALL
GASTEIGER

@<TRIPOS>ATOM
      1 O           1.0475    0.6289   -3.3570 O.3     1  UNL1       -0.4611
      2 C           1.1635   -0.4148   -2.4982 C.2     1  UNL1        0.3343
      3 C           1.5101   -1.6760   -3.2170 C.2     1  UNL1        0.0264
      4 C           1.8380   -1.6987   -4.5204 C.2     1  UNL1       -0.0890
      5 H           1.8693   -0.7989   -5.1276 H       1  UNL1        0.0540
      6 H           2.0915   -2.6284   -5.0202 H       1  UNL1        0.0540
      7 C           1.4779   -2.9161   -2.3755 C.3     1  UNL1       -0.0335
      8 H           2.1925   -2.8402   -1.5493 H       1  UNL1        0.0280
      9 H           1.7353   -3.8098   -2.9542 H       1  UNL1        0.0280
     10 H           0.4768   -3.0698   -1.9589 H       1  UNL1        0.0280
     11 O           0.9967   -0.3608   -1.2884 O.2     1  UNL1       -0.2453
     12 C           0.7241    1.8781   -2.7316 C.3     1  UNL1        0.0951
     13 C           0.5025    2.9400   -3.8163 C.3     1  UNL1       -0.0123
     14 H           1.5472    2.1727   -2.0692 H       1  UNL1        0.0700
     15 H          -0.1914    1.7619   -2.1387 H       1  UNL1        0.0700
     16 C           0.0747    4.2635   -3.1855 C.3     1  UNL1       -0.0596
     17 H           0.8512    4.6559   -2.5199 H       1  UNL1        0.0233
     18 H          -0.8419    4.1373   -2.5996 H       1  UNL1        0.0233
     19 H          -0.1227    5.0161   -3.9561 H       1  UNL1        0.0233
     20 C           1.7548    3.1383   -4.6728 C.3     1  UNL1       -0.0596
     21 H          -0.2979    2.5932   -4.4824 H       1  UNL1        0.0328
     22 H           1.5833    3.9033   -5.4377 H       1  UNL1        0.0233
     23 H           2.0322    2.2134   -5.1887 H       1  UNL1        0.0233
     24 H           2.6070    3.4552   -4.0622 H       1  UNL1        0.0233
@<TRIPOS>BOND
     1     1     2    1
     2     2     3    1
     3     3     4    2
     4     4     5    1
     5     4     6    1
     6     3     7    1
     7     7     8    1
     8     7     9    1
     9     7    10    1
    10     2    11    2
    11     1    12    1
    12    12    13    1
    13    12    14    1
    14    12    15    1
    15    13    16    1
    16    16    17    1
    17    16    18    1
    18    16    19    1
    19    13    20    1
    20    13    21    1
    21    20    22    1
    22    20    23    1
    23    20    24    1
