@<TRIPOS>MOLECULE
*****
 22 23 0 0 0
SMALL
GASTEIGER

@<TRIPOS>ATOM
      1 C          -3.2347    0.9034    0.2217 C.ar    1  UNL1       -0.0606
      2 C          -2.2927    1.9045    0.0027 C.ar    1  UNL1       -0.0540
      3 C          -0.9187    1.6142   -0.1029 C.ar    1  UNL1       -0.0179
      4 C          -0.4903    0.2482    0.0200 C.ar    1  UNL1       -0.0108
      5 C          -1.4710   -0.7583    0.2436 C.ar    1  UNL1       -0.0173
      6 C          -2.8247   -0.4170    0.3409 C.ar    1  UNL1       -0.0540
      7 C          -1.0989   -2.1078    0.3703 C.ar    1  UNL1       -0.0540
      8 C           0.2333   -2.4998    0.2814 C.ar    1  UNL1       -0.0612
      9 C           1.2121   -1.5438    0.0642 C.ar    1  UNL1       -0.0611
     10 C           0.8565   -0.1969   -0.0639 C.ar    1  UNL1       -0.0535
     11 H          -2.6632    2.9213   -0.0835 H       1  UNL1        0.0624
     12 H          -3.5778   -1.1834    0.5118 H       1  UNL1        0.0624
     13 H          -4.2888    1.1560    0.2990 H       1  UNL1        0.0618
     14 H          -1.8539   -2.8727    0.5412 H       1  UNL1        0.0624
     15 H           0.5025   -3.5476    0.3818 H       1  UNL1        0.0618
     16 H           2.2560   -1.8379   -0.0071 H       1  UNL1        0.0618
     17 H           1.6691    0.5026   -0.2327 H       1  UNL1        0.0624
     18 C           0.0461    2.7216   -0.3372 C.2     1  UNL1       -0.0611
     19 C          -0.2221    4.0292   -0.4694 C.2     1  UNL1       -0.0981
     20 H           1.0930    2.4486   -0.4113 H       1  UNL1        0.0618
     21 H          -1.2169    4.4529   -0.4190 H       1  UNL1        0.0535
     22 H           0.5891    4.7321   -0.6385 H       1  UNL1        0.0535
@<TRIPOS>BOND
     1     1     2   ar
     2     2     3   ar
     3     3     4   ar
     4     4     5   ar
     5     5     6   ar
     6     6     1   ar
     7     5     7   ar
     8     7     8   ar
     9     8     9   ar
    10     9    10   ar
    11    10     4   ar
    12     2    11    1
    13     6    12    1
    14     1    13    1
    15     7    14    1
    16     8    15    1
    17     9    16    1
    18    10    17    1
    19     3    18    1
    20    18    19    2
    21    18    20    1
    22    19    21    1
    23    19    22    1
