@<TRIPOS>MOLECULE
*****
 19 19 0 0 0
SMALL
GASTEIGER

@<TRIPOS>ATOM
      1 C          -1.3758   -0.0770    0.0683 C.ar    1  UNL1       -0.0255
      2 C          -0.7466    1.1629    0.0098 C.ar    1  UNL1       -0.0538
      3 C           0.6425    1.2344   -0.0740 C.ar    1  UNL1       -0.0472
      4 C           1.4183    0.0716   -0.0999 C.ar    1  UNL1        0.0589
      5 C           0.7722   -1.1668   -0.0402 C.ar    1  UNL1       -0.0472
      6 C          -0.6166   -1.2430    0.0433 C.ar    1  UNL1       -0.0538
      7 C           2.9116    0.1510   -0.1899 C.2     1  UNL1        0.3368
      8 O           3.4260    1.3107   -0.2557 O.2     1  UNL1       -0.2451
      9 O           3.5498   -0.9475   -0.1935 O.3     1  UNL1       -0.4771
     10 H          -1.3082    2.0285    0.0284 H       1  UNL1        0.0624
     11 H           1.1040    2.1564   -0.1174 H       1  UNL1        0.0626
     12 H           1.3304   -2.0346   -0.0581 H       1  UNL1        0.0626
     13 H          -1.0818   -2.1632    0.0864 H       1  UNL1        0.0624
     14 H           3.0851   -1.7595   -0.1413 H       1  UNL1        0.2954
     15 C          -3.5082   -0.0880    0.1644 C.2     1  UNL1       -0.0617
     16 C          -4.7122    1.4331    0.0601 C.2     1  UNL1       -0.0981
     17 H          -3.9528   -1.0120    0.2802 H       1  UNL1        0.0618
     18 H          -4.3317    2.3854   -0.0557 H       1  UNL1        0.0535
     19 H          -5.7323    1.2888    0.1206 H       1  UNL1        0.0535
@<TRIPOS>BOND
     1     1     2   ar
     2     2     3   ar
     3     3     4   ar
     4     4     5   ar
     5     5     6   ar
     6     1     6   ar
     7     4     7    1
     8     7     8    2
     9     7     9    1
    10     2    10    1
    11     3    11    1
    12     5    12    1
    13     6    13    1
    14     9    14    1
    15     1    15    1
    16    15    16    2
    17    15    17    1
    18    16    18    1
    19    16    19    1
