@<TRIPOS>MOLECULE
*****
 15 15 0 0 0
SMALL
GASTEIGER

@<TRIPOS>ATOM
      1 C          -2.0040    0.4924   -0.0306 C.ar    1  UNL1       -0.0227
      2 C          -1.3418    1.7216   -0.0093 C.ar    1  UNL1       -0.0365
      3 C           0.0455    1.7352    0.0098 C.ar    1  UNL1        0.0281
      4 N           0.8105    0.6245    0.0114 N.ar    1  UNL1       -0.2632
      5 C           0.1561   -0.5538   -0.0063 C.ar    1  UNL1        0.0281
      6 C          -1.2258   -0.6693   -0.0266 C.ar    1  UNL1       -0.0365
      7 H          -1.8741    2.6648   -0.0046 H       1  UNL1        0.0639
      8 H           0.5931    2.6733    0.0260 H       1  UNL1        0.0830
      9 H           0.7901   -1.4358   -0.0032 H       1  UNL1        0.0830
     10 H          -1.6763   -1.6562   -0.0398 H       1  UNL1        0.0639
     11 C          -3.4709    0.3561   -0.0451 C.2     1  UNL1       -0.0616
     12 C          -4.3637    1.3516   -0.1236 C.2     1  UNL1       -0.0981
     13 H          -3.8529   -0.6622    0.0114 H       1  UNL1        0.0618
     14 H          -4.0899    2.3979   -0.1886 H       1  UNL1        0.0535
     15 H          -5.4269    1.1283   -0.1273 H       1  UNL1        0.0535
@<TRIPOS>BOND
     1     1     2   ar
     2     2     3   ar
     3     3     4   ar
     4     4     5   ar
     5     5     6   ar
     6     1     6   ar
     7     2     7    1
     8     3     8    1
     9     5     9    1
    10     6    10    1
    11     1    11    1
    12    11    12    2
    13    11    13    1
    14    12    14    1
    15    12    15    1
