@<TRIPOS>MOLECULE
*****
 26 26 0 0 0
SMALL
GASTEIGER

@<TRIPOS>ATOM
      1 C          -1.4290    2.0791   -0.2220 C.2     1  UNL1       -0.0981
      2 C          -2.2447    1.0370   -0.4280 C.2     1  UNL1       -0.0617
      3 H          -0.6213    2.0535    0.5020 H       1  UNL1        0.0535
      4 H          -1.5689    3.0028   -0.7746 H       1  UNL1        0.0535
      5 C          -2.1489   -0.2496    0.2749 C.ar    1  UNL1       -0.0256
      6 H          -3.0554    1.1316   -1.1469 H       1  UNL1        0.0618
      7 C          -0.8742   -2.0516    1.2948 C.ar    1  UNL1       -0.0579
      8 C          -2.0479   -2.7671    1.5574 C.ar    1  UNL1       -0.0449
      9 C          -3.2736   -2.2155    1.1655 C.ar    1  UNL1       -0.0579
     10 C          -3.3213   -0.9727    0.5252 C.ar    1  UNL1       -0.0544
     11 H          -4.2032   -2.7475    1.3527 H       1  UNL1        0.0620
     12 H          -4.2883   -0.5702    0.2323 H       1  UNL1        0.0624
     13 C          -1.9928   -4.1116    2.2484 C.3     1  UNL1       -0.0018
     14 C          -1.4251   -5.2684    1.4061 C.3     1  UNL1        0.0564
     15 H          -3.0029   -4.3830    2.5813 H       1  UNL1        0.0338
     16 H          -1.3917   -3.9941    3.1596 H       1  UNL1        0.0338
     17 C          -2.0901   -5.4241    0.0438 C.3     1  UNL1       -0.0386
     18 H          -1.7194   -6.3258   -0.4561 H       1  UNL1        0.0255
     19 H          -1.8493   -4.5868   -0.6195 H       1  UNL1        0.0255
     20 H          -3.1771   -5.5058    0.1379 H       1  UNL1        0.0255
     21 O          -0.0141   -5.1177    1.2443 O.3     1  UNL1       -0.3917
     22 H          -1.5713   -6.1948    1.9743 H       1  UNL1        0.0594
     23 H           0.2926   -5.8284    0.6558 H       1  UNL1        0.2098
     24 C          -0.9237   -0.8090    0.6549 C.ar    1  UNL1       -0.0544
     25 H           0.0917   -2.4652    1.5796 H       1  UNL1        0.0620
     26 H           0.0104   -0.2932    0.4484 H       1  UNL1        0.0624
@<TRIPOS>BOND
     1     1     2    2
     2     1     3    1
     3     1     4    1
     4     2     5    1
     5     2     6    1
     6     7     8   ar
     7     8     9   ar
     8     9    10   ar
     9    10     5   ar
    10     9    11    1
    11    10    12    1
    12     8    13    1
    13    13    14    1
    14    13    15    1
    15    13    16    1
    16    14    17    1
    17    17    18    1
    18    17    19    1
    19    17    20    1
    20    14    21    1
    21    14    22    1
    22    21    23    1
    23     7    24   ar
    24     7    25    1
    25    24     5   ar
    26    24    26    1
