@<TRIPOS>MOLECULE
*****
 19 19 0 0 0
SMALL
GASTEIGER

@<TRIPOS>ATOM
      1 C          -2.5187   -0.2406    0.2879 C.ar    1  UNL1       -0.0583
      2 C          -1.6778    0.8556    0.0677 C.ar    1  UNL1       -0.0544
      3 C          -0.2905    0.6912   -0.0546 C.ar    1  UNL1       -0.0256
      4 C           0.2307   -0.6044    0.0502 C.ar    1  UNL1       -0.0544
      5 C          -0.6089   -1.7033    0.2706 C.ar    1  UNL1       -0.0583
      6 C          -1.9901   -1.5300    0.3912 C.ar    1  UNL1       -0.0504
      7 H          -3.5905   -0.0786    0.3782 H       1  UNL1        0.0620
      8 H          -2.1251    1.8444   -0.0072 H       1  UNL1        0.0624
      9 H           1.2972   -0.7884   -0.0368 H       1  UNL1        0.0624
     10 H          -0.1695   -2.6953    0.3467 H       1  UNL1        0.0620
     11 C           0.5383    1.8877   -0.2859 C.2     1  UNL1       -0.0617
     12 C           1.8701    1.9246   -0.4271 C.2     1  UNL1       -0.0981
     13 H          -0.0020    2.8310   -0.3456 H       1  UNL1        0.0618
     14 H           2.4998    1.0443   -0.3842 H       1  UNL1        0.0535
     15 H           2.3722    2.8730   -0.5945 H       1  UNL1        0.0535
     16 C          -2.8999   -2.6982    0.6273 C.3     1  UNL1       -0.0397
     17 H          -2.3408   -3.6380    0.6847 H       1  UNL1        0.0278
     18 H          -3.6210   -2.7862   -0.1917 H       1  UNL1        0.0278
     19 H          -3.4400   -2.5709    1.5710 H       1  UNL1        0.0278
@<TRIPOS>BOND
     1     1     2   ar
     2     2     3   ar
     3     3     4   ar
     4     4     5   ar
     5     5     6   ar
     6     6     1   ar
     7     1     7    1
     8     2     8    1
     9     4     9    1
    10     5    10    1
    11     3    11    1
    12    11    12    2
    13    11    13    1
    14    12    14    1
    15    12    15    1
    16     6    16    1
    17    16    17    1
    18    16    18    1
    19    16    19    1
