@<TRIPOS>MOLECULE
*****
 11 11 0 0 0
SMALL
GASTEIGER

@<TRIPOS>ATOM
      1 N          -3.3238   -3.2225    0.7348 N.ar    1  UNL1       -0.2080
      2 N          -2.0365   -2.8225    0.5538 N.ar    1  UNL1       -0.0397
      3 N          -2.0643   -1.5071    0.3960 N.ar    1  UNL1       -0.0230
      4 N          -3.3415   -1.0284    0.4686 N.ar    1  UNL1       -0.1165
      5 C          -4.0983   -2.0784    0.6746 C.ar    1  UNL1        0.1430
      6 H          -5.1712   -2.0887    0.7860 H       1  UNL1        0.1067
      7 C          -3.8019   -4.5175    0.9421 C.2     1  UNL1        0.0254
      8 C          -3.0453   -5.6227    0.9995 C.2     1  UNL1       -0.0804
      9 H          -4.8775   -4.5972    1.0623 H       1  UNL1        0.0825
     10 H          -1.9645   -5.5837    0.8837 H       1  UNL1        0.0550
     11 H          -3.4926   -6.5981    1.1645 H       1  UNL1        0.0550
@<TRIPOS>BOND
     1     1     2   ar
     2     2     3   ar
     3     3     4   ar
     4     4     5   ar
     5     5     1   ar
     6     5     6    1
     7     1     7    1
     8     7     8    2
     9     7     9    1
    10     8    10    1
    11     8    11    1
