@<TRIPOS>MOLECULE
*****
 24 24 0 0 0
SMALL
GASTEIGER

@<TRIPOS>ATOM
      1 C          -3.0249   -2.1278    0.2804 C.ar    1  UNL1       -0.0351
      2 C          -2.2018   -1.0721    0.6715 C.ar    1  UNL1       -0.0599
      3 C          -0.8221   -1.2618    0.7707 C.ar    1  UNL1       -0.0616
      4 C          -0.2588   -2.5045    0.4738 C.ar    1  UNL1       -0.0599
      5 C          -1.0748   -3.5657    0.0818 C.ar    1  UNL1       -0.0351
      6 C          -2.4575   -3.3748   -0.0002 C.ar    1  UNL1        0.1087
      7 H          -2.6333   -0.0987    0.8923 H       1  UNL1        0.0618
      8 H          -4.0976   -1.9735    0.1918 H       1  UNL1        0.0637
      9 H           0.8178   -2.6423    0.5408 H       1  UNL1        0.0618
     10 H          -0.6283   -4.5274   -0.1604 H       1  UNL1        0.0637
     11 S          -3.5130   -4.7151   -0.5170 S.O2    1  UNL1        0.0739
     12 O          -2.6624   -5.7745   -1.0224 O.2     1  UNL1       -0.1498
     13 O          -4.5496   -4.1405   -1.3516 O.2     1  UNL1       -0.1498
     14 N          -4.1720   -5.2293    0.9751 N.pl3   1  UNL1       -0.2138
     15 C          -3.2614   -5.8647    1.9386 C.3     1  UNL1        0.0229
     16 H          -2.3119   -6.1544    1.4800 H       1  UNL1        0.0446
     17 H          -3.7093   -6.7824    2.3328 H       1  UNL1        0.0446
     18 H          -3.0382   -5.1812    2.7636 H       1  UNL1        0.0446
     19 C          -5.4709   -4.7397    1.2992 C.2     1  UNL1        0.0075
     20 C          -5.9799   -4.9841    2.5081 C.2     1  UNL1       -0.0833
     21 H          -6.0334   -4.1944    0.5450 H       1  UNL1        0.0792
     22 H          -5.4692   -5.5355    3.2867 H       1  UNL1        0.0548
     23 H          -6.9758   -4.6237    2.7495 H       1  UNL1        0.0548
     24 H          -0.1823   -0.4352    1.0712 H       1  UNL1        0.0618
@<TRIPOS>BOND
     1     1     2   ar
     2     2     3   ar
     3     3     4   ar
     4     4     5   ar
     5     5     6   ar
     6     6     1   ar
     7     2     7    1
     8     1     8    1
     9     4     9    1
    10     5    10    1
    11     6    11    1
    12    11    12    2
    13    11    13    2
    14    11    14    1
    15    14    15    1
    16    15    16    1
    17    15    17    1
    18    15    18    1
    19    14    19    1
    20    19    20    2
    21    19    21    1
    22    20    22    1
    23    20    23    1
    24     3    24    1
