@<TRIPOS>MOLECULE
*****
 8 8 0 0 0
SMALL
GASTEIGER

@<TRIPOS>ATOM
      1 C          -2.3698    2.8657    0.0000 C.ar    1  UNL1        0.1340
      2 C          -1.0729    2.6949    0.0000 C.ar    1  UNL1        0.1340
      3 O          -0.3977    3.8821    0.0000 O.2     1  UNL1       -0.3993
      4 O          -2.7145    4.1873   -0.0000 O.2     1  UNL1       -0.3993
      5 C          -1.4574    4.7841    0.0000 C.ar    1  UNL1        0.5201
      6 H          -3.1708    2.1496   -0.0000 H       1  UNL1        0.1063
      7 H          -0.4846    1.7958    0.0000 H       1  UNL1        0.1063
      8 O          -1.2974    5.9984   -0.0000 O.2     1  UNL1       -0.2021
@<TRIPOS>BOND
     1     1     2   ar
     2     2     3   ar
     3     1     4   ar
     4     4     5   ar
     5     5     3   ar
     6     1     6    1
     7     2     7    1
     8     5     8    2
