@<TRIPOS>MOLECULE
*****
 11 10 0 0 0
SMALL
GASTEIGER

@<TRIPOS>ATOM
      1 C         -17.0656    9.5580    0.0591 C.2     1  UNL1       -0.0954
      2 C         -15.8385    9.0393    0.1858 C.2     1  UNL1       -0.0266
      3 H         -17.2206   10.5639   -0.3235 H       1  UNL1        0.0536
      4 H         -17.9449    8.9860    0.3350 H       1  UNL1        0.0536
      5 C         -14.6314    9.8263   -0.1970 C.2     1  UNL1        0.1525
      6 H         -15.6867    8.0363    0.5654 H       1  UNL1        0.0646
      7 C         -13.2991    9.1474   -0.0248 C.3     1  UNL1       -0.0020
      8 H         -13.3184    8.4667    0.8309 H       1  UNL1        0.0309
      9 H         -12.5311    9.9024    0.1661 H       1  UNL1        0.0309
     10 H         -13.0528    8.5933   -0.9338 H       1  UNL1        0.0309
     11 O         -14.7218   10.9595   -0.6630 O.2     1  UNL1       -0.2930
@<TRIPOS>BOND
     1     1     2    2
     2     1     3    1
     3     1     4    1
     4     2     5    1
     5     2     6    1
     6     5     7    1
     7     7     8    1
     8     7     9    1
     9     7    10    1
    10     5    11    2
