@<TRIPOS>MOLECULE
*****
 12 11 0 0 0
SMALL
GASTEIGER

@<TRIPOS>ATOM
      1 C           1.2545   -0.1756   -0.1799 C.2     1  UNL1       -0.0635
      2 C           2.5809   -0.0583   -0.0993 C.2     1  UNL1        0.0886
      3 O           3.1743    0.9455    0.6662 O.3     1  UNL1       -0.4324
      4 C           4.5545    1.0068    0.6442 C.2     1  UNL1        0.3449
      5 O           5.2835    0.2624   -0.0021 O.2     1  UNL1       -0.2474
      6 C           4.9998    2.1539    1.5339 C.3     1  UNL1        0.2039
      7 CL          4.7472    1.7114    3.2359 Cl      1  UNL1       -0.0924
      8 CL          6.7078    2.5570    1.2539 Cl      1  UNL1       -0.0924
      9 H           0.8029   -0.9626   -0.7750 H       1  UNL1        0.0565
     10 H           0.5947    0.5059    0.3463 H       1  UNL1        0.0565
     11 H           3.2647   -0.7262   -0.6086 H       1  UNL1        0.1024
     12 H           4.4134    3.0480    1.3030 H       1  UNL1        0.0752
@<TRIPOS>BOND
     1     1     2    2
     2     2     3    1
     3     3     4    1
     4     4     5    2
     5     4     6    1
     6     6     7    1
     7     6     8    1
     8     1     9    1
     9     1    10    1
    10     2    11    1
    11     6    12    1
