@<TRIPOS>MOLECULE
*****
 8 7 0 0 0
SMALL
GASTEIGER

@<TRIPOS>ATOM
      1 C           1.4558   -0.0749    0.2498 C.2     1  UNL1       -0.0797
      2 C           2.7494    0.0225   -0.0751 C.2     1  UNL1        0.0334
      3 N           3.1441    0.3990   -1.3312 N.2     1  UNL1       -0.1764
      4 C           4.3108    0.4369   -1.4576 C.1     1  UNL1        0.2393
      5 O           5.4807    0.4717   -1.5735 O.2     1  UNL1       -0.2099
      6 H           1.1510   -0.3737    1.2468 H       1  UNL1        0.0550
      7 H           0.6778    0.1425   -0.4752 H       1  UNL1        0.0550
      8 H           3.4960   -0.2068    0.6899 H       1  UNL1        0.0832
@<TRIPOS>BOND
     1     1     2    2
     2     2     3    1
     3     3     4    2
     4     4     5    2
     5     1     6    1
     6     1     7    1
     7     2     8    1
