@<TRIPOS>MOLECULE
*****
 19 18 0 0 0
SMALL
GASTEIGER

@<TRIPOS>ATOM
      1 C          -2.0585    2.7149   -0.9385 C.2     1  UNL11      -0.0642
      2 C          -1.0055    3.1551   -0.2409 C.2     1  UNL11       0.0774
      3 H          -1.9743    2.2775   -1.9254 H       1  UNL11       0.0565
      4 H          -3.0558    2.7892   -0.5163 H       1  UNL11       0.0565
      5 O           0.3162    3.1558   -0.5823 O.2     1  UNL11      -0.4998
      6 H          -1.1171    3.5903    0.7471 H       1  UNL11       0.1017
      7 C           0.6657    2.6149   -1.8585 C.3     1  UNL1        0.0910
      8 C           2.1872    2.7108   -2.0422 C.3     1  UNL1       -0.0125
      9 H           0.1676    3.1928   -2.6469 H       1  UNL1        0.0699
     10 H           0.3475    1.5665   -1.9206 H       1  UNL1        0.0699
     11 C           2.5839    2.2633   -3.4476 C.3     1  UNL1       -0.0596
     12 H           2.3074    1.2185   -3.6253 H       1  UNL1        0.0233
     13 H           3.6649    2.3575   -3.5955 H       1  UNL1        0.0233
     14 H           2.0887    2.8788   -4.2060 H       1  UNL1        0.0233
     15 C           2.9295    1.8820   -0.9914 C.3     1  UNL1       -0.0596
     16 H           2.4891    3.7574   -1.9080 H       1  UNL1        0.0328
     17 H           2.7038    2.2323    0.0210 H       1  UNL1        0.0233
     18 H           4.0129    1.9577   -1.1330 H       1  UNL1        0.0233
     19 H           2.6535    0.8238   -1.0536 H       1  UNL1        0.0233
@<TRIPOS>BOND
     1     1     2    2
     2     1     3    1
     3     1     4    1
     4     2     5    1
     5     2     6    1
     6     5     7    1
     7     7     8    1
     8     7     9    1
     9     7    10    1
    10     8    11    1
    11    11    12    1
    12    11    13    1
    13    11    14    1
    14     8    15    1
    15     8    16    1
    16    15    17    1
    17    15    18    1
    18    15    19    1
