@<TRIPOS>MOLECULE
*****
 8 7 0 0 0
SMALL
GASTEIGER

@<TRIPOS>ATOM
      1 C          -2.2700   -1.4456   -0.0822 C.2     1  UNL1        0.0334
      2 C          -1.8524   -2.7153   -0.0398 C.2     1  UNL1       -0.0797
      3 H          -0.8239   -2.9583    0.2039 H       1  UNL1        0.0550
      4 H          -2.5328   -3.5355   -0.2462 H       1  UNL1        0.0550
      5 N          -3.5668   -1.1313   -0.3903 N.2     1  UNL1       -0.1764
      6 H          -1.5482   -0.6527    0.1312 H       1  UNL1        0.0832
      7 C          -3.8092    0.0107   -0.2655 C.1     1  UNL1        0.2393
      8 O          -4.0437    1.1558   -0.1359 O.2     1  UNL1       -0.2099
@<TRIPOS>BOND
     1     1     2    2
     2     2     3    1
     3     2     4    1
     4     1     5    1
     5     1     6    1
     6     5     7    2
     7     7     8    2
