@<TRIPOS>MOLECULE
*****
 11 10 0 0 0
SMALL
GASTEIGER

@<TRIPOS>ATOM
      1 C          -2.5229   -1.1245   -0.0832 C.2     1  UNL1       -0.0266
      2 C          -2.2385   -2.4321   -0.0799 C.2     1  UNL1       -0.0954
      3 H          -1.2196   -2.7817    0.0468 H       1  UNL1        0.0536
      4 H          -3.0153   -3.1827   -0.2041 H       1  UNL1        0.0536
      5 C          -3.9238   -0.6451   -0.2591 C.2     1  UNL1        0.1525
      6 H          -1.7490   -0.3766    0.0392 H       1  UNL1        0.0646
      7 C          -4.1205    0.8467   -0.2709 C.3     1  UNL1       -0.0020
      8 H          -3.7668    1.2767    0.6699 H       1  UNL1        0.0309
      9 H          -5.1852    1.0739   -0.3784 H       1  UNL1        0.0309
     10 H          -3.5826    1.2852   -1.1155 H       1  UNL1        0.0309
     11 O          -4.8624   -1.4257   -0.3910 O.2     1  UNL1       -0.2930
@<TRIPOS>BOND
     1     1     2    2
     2     2     3    1
     3     2     4    1
     4     1     5    1
     5     1     6    1
     6     5     7    1
     7     7     8    1
     8     7     9    1
     9     7    10    1
    10     5    11    2
