@<TRIPOS>MOLECULE
*****
 14 13 0 0 0
SMALL
GASTEIGER

@<TRIPOS>ATOM
      1 C          -2.0114    0.7898   -0.0253 C.2     1  UNL1       -0.0901
      2 C          -0.7130    0.8034    0.3001 C.2     1  UNL1       -0.0047
      3 H          -2.5680    1.7146   -0.1318 H       1  UNL1        0.0541
      4 H          -2.5472   -0.1384   -0.2077 H       1  UNL1        0.0541
      5 S           0.1515   -0.7551    0.4720 S.O     1  UNL1        0.0457
      6 H          -0.2173    1.7532    0.4722 H       1  UNL1        0.0709
      7 C           1.7977   -0.1590   -0.0252 C.3     1  UNL1        0.0246
      8 C           2.8001   -1.2964   -0.0186 C.3     1  UNL1       -0.0535
      9 H           2.1090    0.6181    0.6799 H       1  UNL1        0.0401
     10 H           1.7259    0.2783   -1.0261 H       1  UNL1        0.0401
     11 H           2.8814   -1.7485    0.9757 H       1  UNL1        0.0238
     12 H           3.7904   -0.9298   -0.3064 H       1  UNL1        0.0238
     13 H           2.5134   -2.0844   -0.7231 H       1  UNL1        0.0238
     14 O          -0.3681   -1.6462   -0.6174 O.2     1  UNL1       -0.2527
@<TRIPOS>BOND
     1     1     2    2
     2     1     3    1
     3     1     4    1
     4     2     5    1
     5     2     6    1
     6     5     7    1
     7     7     8    1
     8     7     9    1
     9     7    10    1
    10     8    11    1
    11     8    12    1
    12     8    13    1
    13     5    14    2
