@<TRIPOS>MOLECULE
*****
 12 11 0 0 0
SMALL
GASTEIGER

@<TRIPOS>ATOM
      1 O           0.0477    2.3215    0.6027 O.3     1  UNL1       -0.4639
      2 C          -0.8457    1.3204    0.3726 C.2     1  UNL1        0.3497
      3 O          -0.5473    0.1753    0.0643 O.2     1  UNL1       -0.2440
      4 C          -2.2469    1.8076    0.5473 C.2     1  UNL1        0.1177
      5 C          -2.5737    3.0634    0.8853 C.2     1  UNL1       -0.0733
      6 H          -1.8228    3.8269    1.0584 H       1  UNL1        0.0551
      7 H          -3.6107    3.3628    0.9987 H       1  UNL1        0.0551
      8 CL         -3.5063    0.6475    0.2883 Cl      1  UNL1       -0.0768
      9 C           1.4124    1.9271    0.4534 C.3     1  UNL1        0.0820
     10 H           2.0407    2.7982    0.6587 H       1  UNL1        0.0661
     11 H           1.6058    1.5947   -0.5714 H       1  UNL1        0.0661
     12 H           1.6654    1.1410    1.1717 H       1  UNL1        0.0661
@<TRIPOS>BOND
     1     1     2    1
     2     2     3    2
     3     2     4    1
     4     4     5    2
     5     5     6    1
     6     5     7    1
     7     4     8    1
     8     1     9    1
     9     9    10    1
    10     9    11    1
    11     9    12    1
