@<TRIPOS>MOLECULE
*****
 33 32 0 0 0
SMALL
GASTEIGER

@<TRIPOS>ATOM
      1 C          -3.6807    1.7516    0.0161 C.2     1  UNL1       -0.0919
      2 C          -2.4879    2.3547    0.0918 C.2     1  UNL1        0.0154
      3 H          -3.7676    0.6834   -0.1642 H       1  UNL1        0.0537
      4 H          -4.5976    2.3192    0.1340 H       1  UNL1        0.0537
      5 C          -1.2337    1.5874   -0.0671 C.2     1  UNL1        0.3314
      6 H          -2.4027    3.4195    0.2715 H       1  UNL1        0.0683
      7 O          -1.1567    0.3878   -0.2684 O.2     1  UNL1       -0.2456
      8 O          -0.2030    2.4585    0.0526 O.3     1  UNL1       -0.4616
      9 C           1.0967    1.8645   -0.0747 C.3     1  UNL1        0.0928
     10 C           2.1193    2.9865    0.0556 C.3     1  UNL1       -0.0185
     11 H           1.1867    1.3799   -1.0539 H       1  UNL1        0.0697
     12 H           1.2400    1.1231    0.7197 H       1  UNL1        0.0697
     13 C           3.5581    2.4855   -0.0490 C.3     1  UNL1       -0.0500
     14 H           1.9690    3.5010    1.0133 H       1  UNL1        0.0298
     15 H           1.9251    3.7390   -0.7195 H       1  UNL1        0.0298
     16 C           4.5386    3.6542    0.0636 C.3     1  UNL1       -0.0530
     17 H           3.7031    1.9713   -1.0066 H       1  UNL1        0.0266
     18 H           3.7558    1.7564    0.7459 H       1  UNL1        0.0266
     19 C           5.9945    3.1989   -0.0387 C.3     1  UNL1       -0.0531
     20 H           4.3848    4.1692    1.0200 H       1  UNL1        0.0265
     21 H           4.3282    4.3817   -0.7301 H       1  UNL1        0.0265
     22 C           6.9414    4.3985    0.0417 C.3     1  UNL1       -0.0533
     23 H           6.1507    2.6684   -0.9856 H       1  UNL1        0.0265
     24 H           6.2195    2.4938    0.7705 H       1  UNL1        0.0265
     25 C           8.4049    3.9743   -0.0654 C.3     1  UNL1       -0.0559
     26 H           6.7824    4.9283    0.9890 H       1  UNL1        0.0265
     27 H           6.7057    5.1041   -0.7646 H       1  UNL1        0.0265
     28 C           9.3329    5.1781   -0.0117 C.3     1  UNL1       -0.0653
     29 H           8.5698    3.4348   -1.0052 H       1  UNL1        0.0263
     30 H           8.6553    3.2886    0.7522 H       1  UNL1        0.0263
     31 H           9.1284    5.8675   -0.8373 H       1  UNL1        0.0230
     32 H          10.3765    4.8575   -0.0878 H       1  UNL1        0.0230
     33 H           9.2126    5.7249    0.9291 H       1  UNL1        0.0230
@<TRIPOS>BOND
     1     1     2    2
     2     1     3    1
     3     1     4    1
     4     2     5    1
     5     2     6    1
     6     5     7    2
     7     5     8    1
     8     8     9    1
     9     9    10    1
    10     9    11    1
    11     9    12    1
    12    10    13    1
    13    10    14    1
    14    10    15    1
    15    13    16    1
    16    13    17    1
    17    13    18    1
    18    16    19    1
    19    16    20    1
    20    16    21    1
    21    19    22    1
    22    19    23    1
    23    19    24    1
    24    22    25    1
    25    22    26    1
    26    22    27    1
    27    25    28    1
    28    25    29    1
    29    25    30    1
    30    28    31    1
    31    28    32    1
    32    28    33    1
