@<TRIPOS>MOLECULE
*****
 10 9 0 0 0
SMALL
GASTEIGER

@<TRIPOS>ATOM
      1 C         -17.1621    6.6609    1.3711 C.2     1  UNL1       -0.0938
      2 C         -15.8892    7.0042    1.1381 C.2     1  UNL1       -0.0072
      3 H         -17.9527    7.4027    1.3528 H       1  UNL1        0.0536
      4 H         -17.4413    5.6321    1.5850 H       1  UNL1        0.0536
      5 C         -14.8212    5.9794    1.1665 C.2     1  UNL1        0.2338
      6 H         -15.6202    8.0305    0.9260 H       1  UNL1        0.0663
      7 O         -15.0148    4.7934    1.3883 O.2     1  UNL1       -0.2711
      8 N         -13.5797    6.4746    0.9211 N.am    1  UNL1       -0.3258
      9 H         -13.3841    7.4468    0.7374 H       1  UNL1        0.1452
     10 H         -12.8109    5.8175    0.9298 H       1  UNL1        0.1452
@<TRIPOS>BOND
     1     1     2    2
     2     1     3    1
     3     1     4    1
     4     2     5    1
     5     2     6    1
     6     5     7    2
     7     5     8   am
     8     8     9    1
     9     8    10    1
