@<TRIPOS>MOLECULE
*****
 15 14 0 0 0
SMALL
GASTEIGER

@<TRIPOS>ATOM
      1 C          -2.4466    2.4047    0.2515 C.3     1  UNL1        0.0332
      2 C          -1.4006    1.3932   -0.1045 C.2     1  UNL1        0.3042
      3 H          -3.4339    1.9358    0.2080 H       1  UNL1        0.0342
      4 H          -2.4230    3.2306   -0.4639 H       1  UNL1        0.0342
      5 H          -2.2780    2.7701    1.2675 H       1  UNL1        0.0342
      6 O          -1.6334    0.2226   -0.3704 O.2     1  UNL1       -0.2512
      7 O          -0.1700    1.9703   -0.0849 O.3     1  UNL1       -0.4607
      8 C           0.8923    1.0683   -0.4040 C.3     1  UNL1        0.1104
      9 C           2.1705    1.8467   -0.3414 C.2     1  UNL1       -0.0541
     10 H           0.7580    0.6820   -1.4209 H       1  UNL1        0.0742
     11 H           0.9003    0.2347    0.3082 H       1  UNL1        0.0742
     12 C           3.2131    1.5387    0.4413 C.2     1  UNL1       -0.0995
     13 H           2.2351    2.7186   -0.9882 H       1  UNL1        0.0600
     14 H           3.1967    0.6792    1.1046 H       1  UNL1        0.0533
     15 H           4.1107    2.1498    0.4354 H       1  UNL1        0.0533
@<TRIPOS>BOND
     1     1     2    1
     2     1     3    1
     3     1     4    1
     4     1     5    1
     5     2     6    2
     6     2     7    1
     7     7     8    1
     8     8     9    1
     9     8    10    1
    10     8    11    1
    11     9    12    2
    12     9    13    1
    13    12    14    1
    14    12    15    1
