@<TRIPOS>MOLECULE
*****
 22 22 0 0 0
SMALL
GASTEIGER

@<TRIPOS>ATOM
      1 C          -2.9122    1.5252   -0.1694 C.ar    1  UNL1       -0.0400
      2 C          -1.5151    1.4206   -0.0194 C.ar    1  UNL1       -0.0600
      3 C          -0.7484    2.5492    0.1929 C.ar    1  UNL1       -0.0616
      4 C          -1.3891    3.7709    0.2528 C.ar    1  UNL1       -0.0600
      5 C          -2.7875    3.8512    0.1000 C.ar    1  UNL1       -0.0400
      6 C          -3.6236    2.7394   -0.1186 C.ar    1  UNL1        0.0376
      7 H          -3.3939    0.5817   -0.3285 H       1  UNL1        0.0636
      8 H          -1.0418    0.4432   -0.0718 H       1  UNL1        0.0618
      9 H          -0.8147    4.6789    0.4187 H       1  UNL1        0.0618
     10 H          -3.1650    4.8516    0.1660 H       1  UNL1        0.0636
     11 N          -5.0754    2.8355   -0.2758 N.pl3   1  UNL1       -0.2837
     12 H           0.3282    2.4779    0.3096 H       1  UNL1        0.0618
     13 C          -5.7861    4.0675   -0.2229 C.2     1  UNL1       -0.0057
     14 C          -5.5849    5.3796   -0.0558 C.2     1  UNL1       -0.0843
     15 H          -6.8530    3.8866   -0.3661 H       1  UNL1        0.0781
     16 H          -4.6567    5.8943    0.1079 H       1  UNL1        0.0547
     17 H          -6.4473    6.0434   -0.0828 H       1  UNL1        0.0547
     18 C          -5.9127    1.7059   -0.4965 C.2     1  UNL1       -0.0057
     19 C          -5.8531    0.3765   -0.6353 C.2     1  UNL1       -0.0843
     20 H          -6.9528    2.0261   -0.5816 H       1  UNL1        0.0781
     21 H          -4.9865   -0.2569   -0.6046 H       1  UNL1        0.0547
     22 H          -6.7804   -0.1689   -0.8023 H       1  UNL1        0.0547
@<TRIPOS>BOND
     1     1     2   ar
     2     2     3   ar
     3     3     4   ar
     4     4     5   ar
     5     5     6   ar
     6     6     1   ar
     7     1     7    1
     8     2     8    1
     9     4     9    1
    10     5    10    1
    11     6    11    1
    12     3    12    1
    13    11    13    1
    14    13    14    2
    15    13    15    1
    16    14    16    1
    17    14    17    1
    18    11    18    1
    19    18    19    2
    20    18    20    1
    21    19    21    1
    22    19    22    1
