@<TRIPOS>MOLECULE
*****
 13 13 0 0 0
SMALL
GASTEIGER

@<TRIPOS>ATOM
      1 C          -1.1054    2.2990   -0.0000 C.2     1  UNL1        0.0057
      2 C           0.2282    2.3057   -0.0000 C.2     1  UNL1        0.0057
      3 C          -1.5464    0.8992    0.0000 C.2     1  UNL1        0.2458
      4 H          -1.7831    3.1340   -0.0000 H       1  UNL1        0.0671
      5 C           0.6811    0.9103    0.0000 C.2     1  UNL1        0.2458
      6 H           0.8979    3.1470   -0.0000 H       1  UNL1        0.0671
      7 O           1.8513    0.5761    0.0000 O.2     1  UNL1       -0.2702
      8 O          -2.7148    0.5590    0.0000 O.2     1  UNL1       -0.2702
      9 N          -0.4292    0.1323    0.0000 N.am    1  UNL1       -0.2382
     10 C          -0.4071   -1.3082    0.0000 C.3     1  UNL1        0.0114
     11 H          -1.4210   -1.7159   -0.0000 H       1  UNL1        0.0434
     12 H           0.1332   -1.6525    0.8868 H       1  UNL1        0.0434
     13 H           0.1332   -1.6525   -0.8868 H       1  UNL1        0.0434
@<TRIPOS>BOND
     1     1     2    2
     2     1     3    1
     3     1     4    1
     4     2     5    1
     5     2     6    1
     6     5     7    2
     7     3     8    2
     8     3     9   am
     9     9     5   am
    10     9    10    1
    11    10    11    1
    12    10    12    1
    13    10    13    1
