@<TRIPOS>MOLECULE
*****
 32 32 0 0 0
SMALL
GASTEIGER

@<TRIPOS>ATOM
      1 C           0.2681    1.2795    2.1221 C.ar    1  UNL1        0.0729
      2 C           0.6703    0.0278    1.6442 C.ar    1  UNL1        0.0729
      3 C           1.1427   -0.9423    2.5433 C.ar    1  UNL1       -0.0470
      4 C           1.2094   -0.6613    3.9092 C.ar    1  UNL1       -0.0609
      5 C           0.8134    0.5877    4.3850 C.ar    1  UNL1       -0.0609
      6 C           0.3404    1.5559    3.4973 C.ar    1  UNL1       -0.0470
      7 H           0.0166    2.5205    3.8832 H       1  UNL1        0.0626
      8 H           1.5769   -1.4156    4.6017 H       1  UNL1        0.0618
      9 H           0.8667    0.8061    5.4493 H       1  UNL1        0.0618
     10 H           1.4724   -1.9143    2.1819 H       1  UNL1        0.0626
     11 C           0.6981   -0.2598    0.1962 C.2     1  UNL1        0.3403
     12 C          -0.3231    2.2848    1.2164 C.2     1  UNL1        0.3403
     13 O           1.1528    0.5011   -0.6399 O.2     1  UNL1       -0.2449
     14 O           0.1818   -1.4936   -0.0138 O.3     1  UNL1       -0.4570
     15 O          -1.1741    2.0317    0.3819 O.2     1  UNL1       -0.2449
     16 O           0.2072    3.4969    1.5036 O.3     1  UNL1       -0.4570
     17 C          -0.2798    4.5526    0.6719 C.3     1  UNL1        0.1108
     18 C           0.1397   -1.8755   -1.3907 C.3     1  UNL1        0.1108
     19 C          -0.2057   -3.3332   -1.4322 C.2     1  UNL1       -0.0541
     20 H           1.1198   -1.7319   -1.8603 H       1  UNL1        0.0743
     21 H          -0.6099   -1.2695   -1.9121 H       1  UNL1        0.0743
     22 C          -1.2733   -3.8489   -2.0556 C.2     1  UNL1       -0.0995
     23 H           0.4766   -4.0028   -0.9143 H       1  UNL1        0.0600
     24 H          -1.9848   -3.2217   -2.5842 H       1  UNL1        0.0533
     25 H          -1.4600   -4.9184   -2.0431 H       1  UNL1        0.0533
     26 C           0.1901    5.8409    1.2765 C.2     1  UNL1       -0.0541
     27 H          -1.3758    4.5522    0.6508 H       1  UNL1        0.0743
     28 H           0.1073    4.4206   -0.3448 H       1  UNL1        0.0743
     29 C           0.9577    6.7438    0.6522 C.2     1  UNL1       -0.0995
     30 H          -0.1310    6.0372    2.2966 H       1  UNL1        0.0600
     31 H           1.3058    6.5924   -0.3651 H       1  UNL1        0.0533
     32 H           1.2600    7.6574    1.1551 H       1  UNL1        0.0533
@<TRIPOS>BOND
     1     1     2   ar
     2     2     3   ar
     3     3     4   ar
     4     4     5   ar
     5     5     6   ar
     6     6     1   ar
     7     6     7    1
     8     4     8    1
     9     5     9    1
    10     3    10    1
    11     2    11    1
    12     1    12    1
    13    11    13    2
    14    11    14    1
    15    12    15    2
    16    12    16    1
    17    16    17    1
    18    14    18    1
    19    18    19    1
    20    18    20    1
    21    18    21    1
    22    19    22    2
    23    19    23    1
    24    22    24    1
    25    22    25    1
    26    17    26    1
    27    17    27    1
    28    17    28    1
    29    26    29    2
    30    26    30    1
    31    29    31    1
    32    29    32    1
