@<TRIPOS>MOLECULE
*****
 6 5 0 0 0
SMALL
GASTEIGER

@<TRIPOS>ATOM
      1 C          -0.3203    3.7295   -1.5145 C.2     1  UNL1        0.1360
      2 C          -0.3487    2.3863   -1.5566 C.2     1  UNL1        0.1360
      3 CL         -0.6476    4.7173   -2.9067 Cl      1  UNL1       -0.0680
      4 CL          0.0467    4.6135   -0.0637 Cl      1  UNL1       -0.0680
      5 CL         -0.0214    1.3985   -0.1645 Cl      1  UNL1       -0.0680
      6 CL         -0.7157    1.5023   -3.0075 Cl      1  UNL1       -0.0680
@<TRIPOS>BOND
     1     1     2    2
     2     1     3    1
     3     1     4    1
     4     2     5    1
     5     2     6    1
