@<TRIPOS>MOLECULE
*****
 12 12 0 0 0
SMALL
GASTEIGER

@<TRIPOS>ATOM
      1 C           0.8091    2.8250   -5.2136 C.3     1  UNL1        0.0767
      2 C           0.8789    1.4615   -4.6538 C.2     1  UNL1        0.0406
      3 C           1.2015    0.3299   -5.2915 C.2     1  UNL1       -0.0882
      4 H           1.4559    0.3245   -6.3467 H       1  UNL1        0.0540
      5 H           1.2188   -0.6247   -4.7695 H       1  UNL1        0.0540
      6 C           0.5287    1.5070   -3.2270 C.2     1  UNL1        0.3425
      7 C           0.3977    3.5934   -3.9976 C.2     1  UNL1        0.3192
      8 H           0.0397    2.9112   -5.9843 H       1  UNL1        0.0429
      9 H           1.7843    3.1746   -5.5602 H       1  UNL1        0.0429
     10 O           0.2587    2.7909   -2.9155 O.3     1  UNL1       -0.3897
     11 O           0.4890    0.5599   -2.4650 O.2     1  UNL1       -0.2448
     12 O           0.2086    4.8013   -3.9773 O.2     1  UNL1       -0.2500
@<TRIPOS>BOND
     1     1     2    1
     2     2     3    2
     3     3     4    1
     4     3     5    1
     5     2     6    1
     6     1     7    1
     7     1     8    1
     8     1     9    1
     9     7    10    1
    10    10     6    1
    11     6    11    2
    12     7    12    2
