@<TRIPOS>MOLECULE
*****
 11 10 0 0 0
SMALL
GASTEIGER

@<TRIPOS>ATOM
      1 C           0.6761    2.1725   -4.2723 C.3     1  UNL1       -0.0221
      2 C           0.4153    1.5402   -2.9257 C.2     1  UNL1        0.0440
      3 H           1.6030    1.7806   -4.7052 H       1  UNL1        0.0293
      4 H           0.7780    3.2611   -4.2090 H       1  UNL1        0.0293
      5 H          -0.1479    1.9482   -4.9578 H       1  UNL1        0.0293
      6 C           0.1277    2.3282   -1.8728 C.2     1  UNL1       -0.0767
      7 H           0.0814    3.4086   -1.9780 H       1  UNL1        0.0553
      8 H          -0.0814    1.9429   -0.8797 H       1  UNL1        0.0553
      9 N           0.4895    0.1625   -2.9431 N.2     1  UNL1       -0.1732
     10 C           0.4553   -0.3897   -1.9080 C.1     1  UNL1        0.2396
     11 O           0.4156   -0.9466   -0.8725 O.2     1  UNL1       -0.2099
@<TRIPOS>BOND
     1     1     2    1
     2     1     3    1
     3     1     4    1
     4     1     5    1
     5     2     6    2
     6     6     7    1
     7     6     8    1
     8     2     9    1
     9     9    10    2
    10    10    11    2
