@<TRIPOS>MOLECULE
*****
 27 26 0 0 0
SMALL
GASTEIGER

@<TRIPOS>ATOM
      1 C           0.0309    1.1756   -2.0558 C.2     1  UNL1        0.3101
      2 C           0.7882   -0.1262   -2.0977 C.3     1  UNL1        0.0813
      3 C           0.4203   -1.0133   -0.9119 C.3     1  UNL1        0.1616
      4 H           1.8617    0.0963   -2.0852 H       1  UNL1        0.0409
      5 H           0.5350   -0.5903   -3.0567 H       1  UNL1        0.0409
      6 C           0.4062   -2.4940   -1.3161 C.2     1  UNL1        0.3365
      7 O          -0.9754    1.3950   -1.3967 O.2     1  UNL1       -0.2507
      8 O           1.3515   -0.7585    0.1452 O.3     1  UNL1       -0.3801
      9 H          -0.5822   -0.8015   -0.5245 H       1  UNL1        0.0716
     10 H           1.1602   -1.4176    0.8398 H       1  UNL1        0.2105
     11 O           0.1923   -2.9273   -2.4395 O.2     1  UNL1       -0.2479
     12 O           0.6059    2.0630   -2.9180 O.3     1  UNL1       -0.4648
     13 O           0.6138   -3.2688   -0.2066 O.3     1  UNL1       -0.4631
     14 C          -0.0471    3.3370   -2.9801 C.3     1  UNL1        0.0896
     15 C           0.5911    4.1419   -4.0955 C.3     1  UNL1       -0.0306
     16 H           0.0829    3.8562   -2.0243 H       1  UNL1        0.0694
     17 H          -1.1152    3.2064   -3.1874 H       1  UNL1        0.0694
     18 H           1.6661    4.2578   -3.9232 H       1  UNL1        0.0262
     19 H           0.1355    5.1331   -4.1713 H       1  UNL1        0.0262
     20 H           0.4761    3.6265   -5.0549 H       1  UNL1        0.0262
     21 C           0.6048   -4.6786   -0.4654 C.3     1  UNL1        0.0897
     22 C           0.7269   -5.4033    0.8608 C.3     1  UNL1       -0.0306
     23 H           1.4534   -4.9351   -1.1092 H       1  UNL1        0.0694
     24 H          -0.3321   -4.9653   -0.9562 H       1  UNL1        0.0694
     25 H           1.6434   -5.1061    1.3810 H       1  UNL1        0.0262
     26 H           0.7386   -6.4868    0.7137 H       1  UNL1        0.0262
     27 H          -0.1102   -5.1452    1.5180 H       1  UNL1        0.0262
@<TRIPOS>BOND
     1     1     2    1
     2     2     3    1
     3     2     4    1
     4     2     5    1
     5     3     6    1
     6     1     7    2
     7     3     8    1
     8     3     9    1
     9     8    10    1
    10     6    11    2
    11     1    12    1
    12     6    13    1
    13    12    14    1
    14    14    15    1
    15    14    16    1
    16    14    17    1
    17    15    18    1
    18    15    19    1
    19    15    20    1
    20    13    21    1
    21    21    22    1
    22    21    23    1
    23    21    24    1
    24    22    25    1
    25    22    26    1
    26    22    27    1
