@<TRIPOS>MOLECULE
*****
 23 23 0 0 0
SMALL
GASTEIGER

@<TRIPOS>ATOM
      1 C           0.8375    0.3952   -2.4056 C.2     1  UNL1        0.2434
      2 C           1.3296   -0.8760   -3.0652 C.2     1  UNL1        0.0045
      3 C           1.8215   -0.9699   -4.3148 C.2     1  UNL1       -0.0908
      4 H           1.9277   -0.1469   -5.0074 H       1  UNL1        0.0539
      5 H           2.1498   -1.9347   -4.6961 H       1  UNL1        0.0539
      6 C           1.2492   -2.1266   -2.2261 C.3     1  UNL1       -0.0353
      7 H           0.8382   -1.9586   -1.2271 H       1  UNL1        0.0279
      8 H           2.2474   -2.5587   -2.0939 H       1  UNL1        0.0279
      9 H           0.6101   -2.8702   -2.7151 H       1  UNL1        0.0279
     10 N           0.9136    1.5347   -3.1777 N.am    1  UNL1       -0.2818
     11 O           0.4115    0.3424   -1.2562 O.2     1  UNL1       -0.2702
     12 C           0.5286    2.8467   -2.8209 C.ar    1  UNL1        0.0337
     13 H           1.2838    1.4453   -4.1087 H       1  UNL1        0.1551
     14 C          -0.0087    3.2002   -1.5821 C.ar    1  UNL1       -0.0405
     15 C           0.7051    3.8470   -3.7877 C.ar    1  UNL1       -0.0405
     16 C           0.3513    5.1724   -3.5199 C.ar    1  UNL1       -0.0600
     17 C          -0.1834    5.5123   -2.2810 C.ar    1  UNL1       -0.0616
     18 C          -0.3630    4.5270   -1.3136 C.ar    1  UNL1       -0.0600
     19 H          -0.1672    2.4680   -0.7971 H       1  UNL1        0.0636
     20 H          -0.4601    6.5414   -2.0679 H       1  UNL1        0.0618
     21 H          -0.7802    4.7853   -0.3435 H       1  UNL1        0.0618
     22 H           1.1203    3.6111   -4.7638 H       1  UNL1        0.0636
     23 H           0.4935    5.9375   -4.2785 H       1  UNL1        0.0618
@<TRIPOS>BOND
     1     1     2    1
     2     2     3    2
     3     3     4    1
     4     3     5    1
     5     2     6    1
     6     6     7    1
     7     6     8    1
     8     6     9    1
     9     1    10   am
    10     1    11    2
    11    10    12    1
    12    10    13    1
    13    12    14   ar
    14    12    15   ar
    15    15    16   ar
    16    16    17   ar
    17    17    18   ar
    18    18    14   ar
    19    14    19    1
    20    17    20    1
    21    18    21    1
    22    15    22    1
    23    16    23    1
