@<TRIPOS>MOLECULE
*****
 24 23 0 0 0
SMALL
GASTEIGER

@<TRIPOS>ATOM
      1 O           1.1172    0.5390   -3.2161 O.3     1  UNL1       -0.4614
      2 C           0.9810   -0.5553   -2.4255 C.2     1  UNL1        0.3343
      3 C           1.5309   -1.7777   -3.0828 C.2     1  UNL1        0.0264
      4 C           2.0939   -1.7541   -4.3032 C.2     1  UNL1       -0.0890
      5 H           2.1806   -0.8421   -4.8863 H       1  UNL1        0.0540
      6 H           2.4889   -2.6574   -4.7574 H       1  UNL1        0.0540
      7 C           1.4151   -3.0373   -2.2779 C.3     1  UNL1       -0.0335
      8 H           1.9368   -2.9316   -1.3209 H       1  UNL1        0.0280
      9 H           1.8521   -3.8966   -2.7980 H       1  UNL1        0.0280
     10 H           0.3638   -3.2703   -2.0794 H       1  UNL1        0.0280
     11 O           0.4793   -0.5666   -1.3108 O.2     1  UNL1       -0.2453
     12 C           0.6305    1.7530   -2.6299 C.3     1  UNL1        0.0928
     13 C           0.8336    2.8779   -3.6389 C.3     1  UNL1       -0.0188
     14 H           1.1912    1.9636   -1.7117 H       1  UNL1        0.0697
     15 H          -0.4351    1.6470   -2.3945 H       1  UNL1        0.0697
     16 C           0.3820    4.2244   -3.0807 C.3     1  UNL1       -0.0528
     17 H           0.2830    2.6428   -4.5585 H       1  UNL1        0.0298
     18 H           1.8916    2.9220   -3.9265 H       1  UNL1        0.0298
     19 C           0.5720    5.3402   -4.0956 C.3     1  UNL1       -0.0652
     20 H           0.9529    4.4613   -2.1753 H       1  UNL1        0.0264
     21 H          -0.6748    4.1745   -2.7942 H       1  UNL1        0.0264
     22 H           1.6234    5.4316   -4.3866 H       1  UNL1        0.0230
     23 H           0.2525    6.2971   -3.6712 H       1  UNL1        0.0230
     24 H          -0.0195    5.1543   -4.9978 H       1  UNL1        0.0230
@<TRIPOS>BOND
     1     1     2    1
     2     2     3    1
     3     3     4    2
     4     4     5    1
     5     4     6    1
     6     3     7    1
     7     7     8    1
     8     7     9    1
     9     7    10    1
    10     2    11    2
    11     1    12    1
    12    12    13    1
    13    12    14    1
    14    12    15    1
    15    13    16    1
    16    13    17    1
    17    13    18    1
    18    16    19    1
    19    16    20    1
    20    16    21    1
    21    19    22    1
    22    19    23    1
    23    19    24    1
