@<TRIPOS>MOLECULE
*****
 20 20 0 0 0
SMALL
GASTEIGER

@<TRIPOS>ATOM
      1 C          -0.4470    2.8943    0.2411 C.3     1  UNL1       -0.0335
      2 C           0.7359    1.9855    0.0879 C.2     1  UNL1        0.0264
      3 H          -1.1176    2.7998   -0.6196 H       1  UNL1        0.0280
      4 H          -0.1486    3.9458    0.3126 H       1  UNL1        0.0280
      5 H          -1.0066    2.6470    1.1493 H       1  UNL1        0.0280
      6 C           1.9977    2.4479    0.0589 C.2     1  UNL1       -0.0890
      7 H           2.2086    3.5094    0.1460 H       1  UNL1        0.0540
      8 H           2.8564    1.7926   -0.0508 H       1  UNL1        0.0540
      9 C           0.4061    0.5345   -0.0291 C.2     1  UNL1        0.3344
     10 O          -0.7363    0.1042    0.0296 O.2     1  UNL1       -0.2453
     11 O           1.5203   -0.2163   -0.2132 O.3     1  UNL1       -0.4587
     12 C           1.2579   -1.6176   -0.3457 C.3     1  UNL1        0.1210
     13 C           2.5559   -2.3078   -0.6014 C.3     1  UNL1        0.1160
     14 H           0.5864   -1.7907   -1.1946 H       1  UNL1        0.0724
     15 H           0.7875   -1.9905    0.5722 H       1  UNL1        0.0724
     16 C           3.4163   -2.8024    0.5303 C.3     1  UNL1        0.0776
     17 O           2.5851   -3.6919   -0.2318 O.3     1  UNL1       -0.3682
     18 H           3.0219   -2.0187   -1.5331 H       1  UNL1        0.0653
     19 H           3.1187   -2.5872    1.5488 H       1  UNL1        0.0587
     20 H           4.4858   -2.8627    0.3732 H       1  UNL1        0.0587
@<TRIPOS>BOND
     1     1     2    1
     2     1     3    1
     3     1     4    1
     4     1     5    1
     5     2     6    2
     6     6     7    1
     7     6     8    1
     8     2     9    1
     9     9    10    2
    10     9    11    1
    11    11    12    1
    12    12    13    1
    13    12    14    1
    14    12    15    1
    15    13    16    1
    16    13    17    1
    17    13    18    1
    18    17    16    1
    19    16    19    1
    20    16    20    1
