@<TRIPOS>MOLECULE
*****
 14 13 0 0 0
SMALL
GASTEIGER

@<TRIPOS>ATOM
      1 C          -0.3620    1.2395   -0.0012 C.2     1  UNL1       -0.0154
      2 C          -1.1020    0.1184    0.0034 C.2     1  UNL1       -0.0925
      3 H          -0.6454   -0.8656    0.0252 H       1  UNL1        0.0538
      4 H          -2.1889    0.1516   -0.0149 H       1  UNL1        0.0538
      5 C           1.1335    1.2163    0.0234 C.3     1  UNL1       -0.0370
      6 H           1.5237    0.1930    0.0524 H       1  UNL1        0.0278
      7 H           1.5148    1.7352    0.9085 H       1  UNL1        0.0278
      8 H           1.5429    1.6956   -0.8715 H       1  UNL1        0.0278
      9 C          -1.0810    2.5601   -0.0328 C.2     1  UNL1        0.1554
     10 C          -0.2573    3.8226   -0.0089 C.3     1  UNL1       -0.0018
     11 H           0.3025    3.8888    0.9273 H       1  UNL1        0.0309
     12 H          -0.9229    4.6891   -0.0723 H       1  UNL1        0.0309
     13 H           0.4177    3.8519   -0.8677 H       1  UNL1        0.0309
     14 O          -2.3102    2.6153   -0.0709 O.2     1  UNL1       -0.2927
@<TRIPOS>BOND
     1     1     2    2
     2     2     3    1
     3     2     4    1
     4     1     5    1
     5     5     6    1
     6     5     7    1
     7     5     8    1
     8     1     9    1
     9     9    10    1
    10    10    11    1
    11    10    12    1
    12    10    13    1
    13     9    14    2
