@<TRIPOS>MOLECULE
*****
 25 25 0 0 0
SMALL
GASTEIGER

@<TRIPOS>ATOM
      1 C           1.2677    5.1210   -5.8985 C.ar    1  UNL1       -0.0617
      2 C           0.7388    5.3781   -4.6362 C.ar    1  UNL1       -0.0614
      3 C           0.5821    4.3369   -3.7193 C.ar    1  UNL1       -0.0554
      4 C           0.9527    3.0237   -4.0524 C.ar    1  UNL1       -0.0103
      5 C           1.4831    2.7812   -5.3273 C.ar    1  UNL1       -0.0554
      6 C           1.6397    3.8238   -6.2439 C.ar    1  UNL1       -0.0614
      7 H           2.0523    3.6214   -7.2288 H       1  UNL1        0.0618
      8 H           1.3897    5.9306   -6.6131 H       1  UNL1        0.0618
      9 H           1.7804    1.7779   -5.6222 H       1  UNL1        0.0621
     10 H           0.4474    6.3894   -4.3648 H       1  UNL1        0.0618
     11 H           0.1665    4.5558   -2.7376 H       1  UNL1        0.0621
     12 C           0.7584    1.9304   -3.0239 C.3     1  UNL1        0.1178
     13 O           1.2046    0.6605   -3.5105 O.3     1  UNL1       -0.4566
     14 H          -0.3098    1.8687   -2.7818 H       1  UNL1        0.0749
     15 H           1.3339    2.1907   -2.1271 H       1  UNL1        0.0749
     16 C           1.0277   -0.3533   -2.6272 C.2     1  UNL1        0.3346
     17 C           1.5205   -1.6499   -3.1803 C.2     1  UNL1        0.0265
     18 C           2.0511   -1.7529   -4.4119 C.2     1  UNL1       -0.0890
     19 H           2.1470   -0.9034   -5.0806 H       1  UNL1        0.0540
     20 H           2.4031   -2.7081   -4.7898 H       1  UNL1        0.0540
     21 C           1.4105   -2.8503   -2.2873 C.3     1  UNL1       -0.0335
     22 H           1.1630   -2.5888   -1.2542 H       1  UNL1        0.0280
     23 H           2.3597   -3.3970   -2.2575 H       1  UNL1        0.0280
     24 H           0.6314   -3.5259   -2.6558 H       1  UNL1        0.0280
     25 O           0.5348   -0.2403   -1.5153 O.2     1  UNL1       -0.2453
@<TRIPOS>BOND
     1     1     2   ar
     2     2     3   ar
     3     3     4   ar
     4     4     5   ar
     5     5     6   ar
     6     6     1   ar
     7     6     7    1
     8     1     8    1
     9     5     9    1
    10     2    10    1
    11     3    11    1
    12     4    12    1
    13    12    13    1
    14    12    14    1
    15    12    15    1
    16    13    16    1
    17    16    17    1
    18    17    18    2
    19    18    19    1
    20    18    20    1
    21    17    21    1
    22    21    22    1
    23    21    23    1
    24    21    24    1
    25    16    25    2
