@<TRIPOS>MOLECULE
*****
 12 11 0 0 0
SMALL
GASTEIGER

@<TRIPOS>ATOM
      1 C          -0.3944    1.8511    0.6956 C.3     1  UNL1       -0.0335
      2 C           0.8332    0.9932    0.6951 C.2     1  UNL1        0.0263
      3 H          -1.1099    1.4932   -0.0521 H       1  UNL1        0.0280
      4 H          -0.1620    2.8947    0.4584 H       1  UNL1        0.0280
      5 H          -0.8786    1.8336    1.6776 H       1  UNL1        0.0280
      6 C           2.0733    1.4806    0.5198 C.2     1  UNL1       -0.0890
      7 H           2.2352    2.5409    0.3446 H       1  UNL1        0.0540
      8 H           2.9630    0.8626    0.5963 H       1  UNL1        0.0540
      9 C           0.5991   -0.4455    0.9795 C.2     1  UNL1        0.3319
     10 O          -0.2628   -0.8446    1.7436 O.2     1  UNL1       -0.2455
     11 O           1.3883   -1.2677    0.2588 O.3     1  UNL1       -0.4774
     12 H           1.9131   -0.8053   -0.4195 H       1  UNL1        0.2954
@<TRIPOS>BOND
     1     1     2    1
     2     1     3    1
     3     1     4    1
     4     1     5    1
     5     2     6    2
     6     6     7    1
     7     6     8    1
     8     2     9    1
     9     9    10    2
    10     9    11    1
    11    11    12    1
