@<TRIPOS>MOLECULE
*****
 28 27 0 0 0
SMALL
GASTEIGER

@<TRIPOS>ATOM
      1 C          -1.3612    2.5704   -0.0081 C.2     1  UNL1        0.0225
      2 C          -0.3247    1.7183   -0.0169 C.2     1  UNL1       -0.0548
      3 C          -0.3648    0.2732   -0.0135 C.2     1  UNL1       -0.0548
      4 H           0.6621    2.1783   -0.0303 H       1  UNL1        0.0620
      5 C           0.6765   -0.5754   -0.0039 C.2     1  UNL1        0.0225
      6 H          -1.3518   -0.1871   -0.0218 H       1  UNL1        0.0620
      7 C          -2.8052    2.2419    0.0151 C.2     1  UNL1        0.3319
      8 H          -1.1443    3.6354   -0.0151 H       1  UNL1        0.0689
      9 C           2.1179   -0.2325    0.0137 C.2     1  UNL1        0.3319
     10 H           0.4676   -1.6419   -0.0056 H       1  UNL1        0.0689
     11 O           2.5968    0.8877    0.0345 O.2     1  UNL1       -0.2456
     12 O          -3.2969    1.1274    0.0403 O.2     1  UNL1       -0.2456
     13 O          -3.4859    3.4173    0.0068 O.3     1  UNL1       -0.4618
     14 O           2.8160   -1.3982    0.0059 O.3     1  UNL1       -0.4618
     15 C           4.2379   -1.2241    0.0319 C.3     1  UNL1        0.0900
     16 C           4.8851   -2.5948    0.0050 C.3     1  UNL1       -0.0306
     17 H           4.5280   -0.6964    0.9475 H       1  UNL1        0.0695
     18 H           4.5573   -0.6474   -0.8435 H       1  UNL1        0.0695
     19 H           4.5543   -3.1947    0.8592 H       1  UNL1        0.0262
     20 H           5.9752   -2.5118    0.0323 H       1  UNL1        0.0262
     21 H           4.5947   -3.1402   -0.8991 H       1  UNL1        0.0262
     22 C          -4.9106    3.2723    0.0387 C.3     1  UNL1        0.0900
     23 C          -5.5248    4.6586    0.0104 C.3     1  UNL1       -0.0306
     24 H          -5.2083    2.7539    0.9570 H       1  UNL1        0.0695
     25 H          -5.2456    2.7007   -0.8340 H       1  UNL1        0.0695
     26 H          -5.1745    5.2530    0.8609 H       1  UNL1        0.0262
     27 H          -6.6164    4.6034    0.0431 H       1  UNL1        0.0262
     28 H          -5.2247    5.1940   -0.8965 H       1  UNL1        0.0262
@<TRIPOS>BOND
     1     1     2    2
     2     2     3    1
     3     2     4    1
     4     3     5    2
     5     3     6    1
     6     1     7    1
     7     1     8    1
     8     5     9    1
     9     5    10    1
    10     9    11    2
    11     7    12    2
    12     7    13    1
    13     9    14    1
    14    14    15    1
    15    15    16    1
    16    15    17    1
    17    15    18    1
    18    16    19    1
    19    16    20    1
    20    16    21    1
    21    13    22    1
    22    22    23    1
    23    22    24    1
    24    22    25    1
    25    23    26    1
    26    23    27    1
    27    23    28    1
