@<TRIPOS>MOLECULE
*****
 10 9 0 0 0
SMALL
GASTEIGER

@<TRIPOS>ATOM
      1 C          -0.7376    0.4952   -0.0530 C.2     1  UNL1       -0.0987
      2 C          -0.8433    1.8253    0.0426 C.2     1  UNL1       -0.0694
      3 C          -2.1020    2.5208   -0.0600 C.2     1  UNL1       -0.0694
      4 C          -2.2085    3.8511    0.0355 C.2     1  UNL1       -0.0987
      5 H          -3.0001    1.9285   -0.2224 H       1  UNL1        0.0612
      6 H          -1.3465    4.4904    0.1972 H       1  UNL1        0.0535
      7 H          -3.1777    4.3329   -0.0479 H       1  UNL1        0.0535
      8 H           0.2312    0.0128    0.0304 H       1  UNL1        0.0535
      9 H          -1.5999   -0.1436   -0.2147 H       1  UNL1        0.0535
     10 H           0.0550    2.4175    0.2051 H       1  UNL1        0.0612
@<TRIPOS>BOND
     1     1     2    2
     2     2     3    1
     3     3     4    2
     4     3     5    1
     5     4     6    1
     6     4     7    1
     7     1     8    1
     8     1     9    1
     9     2    10    1
