@<TRIPOS>MOLECULE
*****
 13 12 0 0 0
SMALL
GASTEIGER

@<TRIPOS>ATOM
      1 C          -1.0522    0.0920   -0.1259 C.2     1  UNL1        0.0223
      2 C          -0.8796    1.4162    0.0045 C.2     1  UNL1       -0.0556
      3 C          -1.9883    2.3436   -0.0601 C.2     1  UNL1       -0.0687
      4 C          -1.8407    3.6674    0.0671 C.2     1  UNL1       -0.0987
      5 H          -2.9876    1.9409   -0.2198 H       1  UNL1        0.0612
      6 H          -0.8749    4.1357    0.2279 H       1  UNL1        0.0535
      7 H          -2.7045    4.3239    0.0113 H       1  UNL1        0.0535
      8 H           0.0953    1.8628    0.1647 H       1  UNL1        0.0620
      9 C          -0.0336   -0.9759   -0.0842 C.2     1  UNL1        0.3295
     10 H          -2.0494   -0.3135   -0.2856 H       1  UNL1        0.0689
     11 O          -0.3472   -2.1487   -0.2201 O.2     1  UNL1       -0.2458
     12 O           1.2370   -0.5857    0.1089 O.3     1  UNL1       -0.4775
     13 H           1.3807    0.3687    0.2053 H       1  UNL1        0.2954
@<TRIPOS>BOND
     1     1     2    2
     2     2     3    1
     3     3     4    2
     4     3     5    1
     5     4     6    1
     6     4     7    1
     7     2     8    1
     8     1     9    1
     9     1    10    1
    10     9    11    2
    11     9    12    1
    12    12    13    1
