@<TRIPOS>MOLECULE
*****
 9 8 0 0 0
SMALL
GASTEIGER

@<TRIPOS>ATOM
      1 C          -0.3912    0.3301   -0.1613 C.3     1  UNL1        0.2091
      2 CL          0.2217    1.5216   -1.3472 Cl      1  UNL1       -0.0789
      3 CL          0.6249    0.4022    1.3097 Cl      1  UNL1       -0.0789
      4 CL         -0.2602   -1.3005   -0.8682 Cl      1  UNL1       -0.0789
      5 C          -1.8015    0.7193    0.2166 C.2     1  UNL1       -0.0410
      6 C          -2.9447    0.0237    0.0974 C.2     1  UNL1       -0.0987
      7 H          -1.8830    1.7169    0.6489 H       1  UNL1        0.0608
      8 H          -2.9868   -0.9787   -0.3182 H       1  UNL1        0.0533
      9 H          -3.8880    0.4553    0.4223 H       1  UNL1        0.0533
@<TRIPOS>BOND
     1     1     2    1
     2     1     3    1
     3     1     4    1
     4     1     5    1
     5     5     6    2
     6     5     7    1
     7     6     8    1
     8     6     9    1
