@<TRIPOS>MOLECULE
*****
 21 21 0 0 0
SMALL
GASTEIGER

@<TRIPOS>ATOM
      1 N          -1.9427    3.9610    0.1739 N.ar    1  UNL1       -0.2522
      2 C          -0.9369    3.0828   -0.0522 C.ar    1  UNL1        0.0636
      3 C           0.3471    3.7150   -0.3795 C.2     1  UNL1       -0.0434
      4 C           1.5587    3.1432   -0.3461 C.2     1  UNL1       -0.0967
      5 H           0.2664    4.7653   -0.6518 H       1  UNL1        0.0633
      6 H           1.7183    2.1108   -0.0578 H       1  UNL1        0.0535
      7 H           2.4397    3.7253   -0.5999 H       1  UNL1        0.0535
      8 C          -1.1306    1.7066   -0.0158 C.ar    1  UNL1       -0.0363
      9 C          -2.3981    1.2144    0.2825 C.ar    1  UNL1       -0.0581
     10 C          -3.4350    2.1056    0.5302 C.ar    1  UNL1       -0.0404
     11 C          -3.1702    3.4695    0.4712 C.ar    1  UNL1        0.0417
     12 H          -0.3228    1.0151   -0.2236 H       1  UNL1        0.0639
     13 H          -2.5754    0.1433    0.3158 H       1  UNL1        0.0619
     14 H          -4.4303    1.7396    0.7594 H       1  UNL1        0.0635
     15 C          -4.2675    4.4739    0.7054 C.3     1  UNL1       -0.0132
     16 C          -5.0232    4.7862   -0.5765 C.3     1  UNL1       -0.0598
     17 H          -3.8306    5.3969    1.1050 H       1  UNL1        0.0326
     18 H          -4.9590    4.0999    1.4696 H       1  UNL1        0.0326
     19 H          -4.3526    5.1886   -1.3435 H       1  UNL1        0.0233
     20 H          -5.8042    5.5286   -0.3844 H       1  UNL1        0.0233
     21 H          -5.5008    3.8894   -0.9855 H       1  UNL1        0.0233
@<TRIPOS>BOND
     1     1     2   ar
     2     2     3    1
     3     3     4    2
     4     3     5    1
     5     4     6    1
     6     4     7    1
     7     2     8   ar
     8     8     9   ar
     9     9    10   ar
    10    10    11   ar
    11    11     1   ar
    12     8    12    1
    13     9    13    1
    14    10    14    1
    15    11    15    1
    16    15    16    1
    17    15    17    1
    18    15    18    1
    19    16    19    1
    20    16    20    1
    21    16    21    1
