@<TRIPOS>MOLECULE
*****
 16 16 0 0 0
SMALL
GASTEIGER

@<TRIPOS>ATOM
      1 C          -3.7017   -1.4581    0.5530 C.3     1  UNL1        0.0331
      2 C          -2.5228   -2.4014    0.5543 C.3     1  UNL1        0.0331
      3 C          -1.3245   -1.5284    0.3223 C.2     1  UNL1        0.2261
      4 H          -2.6028   -3.1411   -0.2477 H       1  UNL1        0.0363
      5 H          -2.4246   -2.9157    1.5150 H       1  UNL1        0.0363
      6 C          -3.1023   -0.1046    0.3294 C.2     1  UNL1        0.2261
      7 H          -4.2306   -1.4768    1.5104 H       1  UNL1        0.0363
      8 H          -4.4007   -1.6921   -0.2553 H       1  UNL1        0.0363
      9 N          -1.7361   -0.2201    0.2044 N.am    1  UNL1       -0.2179
     10 O          -0.1921   -1.9894    0.2620 O.2     1  UNL1       -0.2748
     11 O          -3.7717    0.9196    0.2733 O.2     1  UNL1       -0.2748
     12 C          -0.9388    0.8876   -0.0123 C.2     1  UNL1       -0.0000
     13 C           0.3912    0.9076   -0.1502 C.2     1  UNL1       -0.0841
     14 H          -1.4790    1.8327   -0.0728 H       1  UNL1        0.0783
     15 H           1.0102    0.0182   -0.1045 H       1  UNL1        0.0547
     16 H           0.9076    1.8480   -0.3178 H       1  UNL1        0.0547
@<TRIPOS>BOND
     1     1     2    1
     2     2     3    1
     3     2     4    1
     4     2     5    1
     5     1     6    1
     6     1     7    1
     7     1     8    1
     8     6     9   am
     9     9     3   am
    10     3    10    2
    11     6    11    2
    12     9    12    1
    13    12    13    2
    14    12    14    1
    15    13    15    1
    16    13    16    1
