@<TRIPOS>MOLECULE
*****
 8 7 0 0 0
SMALL
GASTEIGER

@<TRIPOS>ATOM
      1 C           1.4104   -0.4739   -0.1370 C.2     1  UNL1       -0.0798
      2 C           2.7009   -0.1295   -0.0741 C.2     1  UNL1        0.0309
      3 N           3.0827    1.1645    0.1627 N.2     1  UNL1       -0.2058
      4 C           4.2461    1.3248    0.1920 C.1     1  UNL1        0.0408
      5 S           5.8200    1.5724    0.2373 S.2     1  UNL1        0.0206
      6 H           1.1141   -1.4999   -0.3247 H       1  UNL1        0.0550
      7 H           0.6273    0.2654   -0.0018 H       1  UNL1        0.0550
      8 H           3.4534   -0.9086   -0.2166 H       1  UNL1        0.0831
@<TRIPOS>BOND
     1     1     2    2
     2     2     3    1
     3     3     4    2
     4     4     5    2
     5     1     6    1
     6     1     7    1
     7     2     8    1
