@<TRIPOS>MOLECULE
*****
 12 11 0 0 0
SMALL
GASTEIGER

@<TRIPOS>ATOM
      1 C          -0.5883    0.5830    0.0850 C.2     1  UNL1       -0.0635
      2 C          -0.4228   -0.7185   -0.1547 C.2     1  UNL1        0.0886
      3 H           0.2603    1.2231    0.3070 H       1  UNL1        0.0565
      4 H          -1.5724    1.0387    0.0563 H       1  UNL1        0.0565
      5 O           0.8580   -1.2951   -0.1433 O.3     1  UNL1       -0.4334
      6 H          -1.2411   -1.3754   -0.4025 H       1  UNL1        0.1024
      7 C           1.1561   -2.6360   -0.1058 C.2     1  UNL1        0.3266
      8 C          -0.0310   -3.5682   -0.0222 C.3     1  UNL1        0.1201
      9 CL          0.4765   -5.2682    0.1174 Cl      1  UNL1       -0.1135
     10 H          -0.6294   -3.4919   -0.9327 H       1  UNL1        0.0545
     11 H          -0.6255   -3.3419    0.8657 H       1  UNL1        0.0545
     12 O           2.3269   -3.0025   -0.1400 O.2     1  UNL1       -0.2491
@<TRIPOS>BOND
     1     1     2    2
     2     1     3    1
     3     1     4    1
     4     2     5    1
     5     2     6    1
     6     5     7    1
     7     7     8    1
     8     8     9    1
     9     8    10    1
    10     8    11    1
    11     7    12    2
