@<TRIPOS>MOLECULE
*****
 23 23 0 0 0
SMALL
GASTEIGER

@<TRIPOS>ATOM
      1 C          -1.7634    2.9030   -0.1612 C.2     1  UNL1       -0.1020
      2 C          -0.7549    2.4281   -0.9093 C.2     1  UNL1       -0.0816
      3 H          -1.6065    3.4904    0.7370 H       1  UNL1        0.0532
      4 H          -2.7941    2.6891   -0.4303 H       1  UNL1        0.0532
      5 C           0.7432    2.6117   -0.6946 C.3     1  UNL1        0.0251
      6 H          -1.0148    1.8311   -1.7838 H       1  UNL1        0.0573
      7 C           1.4619    1.3140   -0.3303 C.ar    1  UNL1       -0.0384
      8 C           0.8246    0.2473    0.3234 C.ar    1  UNL1       -0.0579
      9 C           2.8306    1.1860   -0.6288 C.ar    1  UNL1       -0.0579
     10 C           1.5279   -0.9160    0.6479 C.ar    1  UNL1       -0.0615
     11 C           2.8823   -1.0241    0.3431 C.ar    1  UNL1       -0.0617
     12 C           3.5354    0.0289   -0.2911 C.ar    1  UNL1       -0.0615
     13 H           3.3618    1.9976   -1.1232 H       1  UNL1        0.0620
     14 H          -0.2292    0.3020    0.5864 H       1  UNL1        0.0620
     15 H           1.0161   -1.7378    1.1422 H       1  UNL1        0.0618
     16 H           3.4286   -1.9271    0.6020 H       1  UNL1        0.0618
     17 H           4.5945   -0.0485   -0.5226 H       1  UNL1        0.0618
     18 C           1.1351    3.7368    0.2929 C.3     1  UNL1        0.0544
     19 H           1.1160    2.9166   -1.6844 H       1  UNL1        0.0414
     20 O           0.8242    5.0289   -0.2347 O.3     1  UNL1       -0.3941
     21 H           2.2148    3.7371    0.4776 H       1  UNL1        0.0566
     22 H           0.6475    3.6243    1.2670 H       1  UNL1        0.0566
     23 H          -0.1034    5.0079   -0.5281 H       1  UNL1        0.2094
@<TRIPOS>BOND
     1     1     2    2
     2     1     3    1
     3     1     4    1
     4     2     5    1
     5     2     6    1
     6     5     7    1
     7     7     8   ar
     8     7     9   ar
     9     8    10   ar
    10    10    11   ar
    11    11    12   ar
    12    12     9   ar
    13     9    13    1
    14     8    14    1
    15    10    15    1
    16    11    16    1
    17    12    17    1
    18     5    18    1
    19     5    19    1
    20    18    20    1
    21    18    21    1
    22    18    22    1
    23    20    23    1
