@<TRIPOS>MOLECULE
*****
 19 18 0 0 0
SMALL
GASTEIGER

@<TRIPOS>ATOM
      1 C          -4.8121    2.9642   -0.7126 C.2     1  UNL1       -0.0924
      2 C          -3.5979    2.7422   -0.1989 C.2     1  UNL1       -0.0352
      3 H          -5.6488    3.2080   -0.0665 H       1  UNL1        0.0540
      4 H          -5.0052    2.9112   -1.7798 H       1  UNL1        0.0540
      5 S          -2.2619    2.3538   -1.2220 S.3     1  UNL1       -0.1276
      6 H          -3.4606    2.8082    0.8754 H       1  UNL1        0.0684
      7 C          -0.8232    2.2928   -0.0717 C.3     1  UNL1        0.0123
      8 C           0.4100    1.9841   -0.9380 C.3     1  UNL1       -0.0506
      9 H           0.3192    1.0170   -1.4470 H       1  UNL1        0.0243
     10 H           1.3161    1.9392   -0.3219 H       1  UNL1        0.0243
     11 H           0.5771    2.7555   -1.6995 H       1  UNL1        0.0243
     12 C          -0.9968    1.1714    0.9609 C.3     1  UNL1       -0.0506
     13 H          -1.1575    0.1994    0.4802 H       1  UNL1        0.0243
     14 H          -1.8348    1.3568    1.6405 H       1  UNL1        0.0243
     15 H          -0.0993    1.0795    1.5844 H       1  UNL1        0.0243
     16 C          -0.6168    3.6470    0.6193 C.3     1  UNL1       -0.0506
     17 H          -1.4434    3.9027    1.2900 H       1  UNL1        0.0243
     18 H          -0.5047    4.4597   -0.1079 H       1  UNL1        0.0243
     19 H           0.2928    3.6328    1.2316 H       1  UNL1        0.0243
@<TRIPOS>BOND
     1     1     2    2
     2     1     3    1
     3     1     4    1
     4     2     5    1
     5     2     6    1
     6     5     7    1
     7     7     8    1
     8     8     9    1
     9     8    10    1
    10     8    11    1
    11     7    12    1
    12    12    13    1
    13    12    14    1
    14    12    15    1
    15     7    16    1
    16    16    17    1
    17    16    18    1
    18    16    19    1
