@<TRIPOS>MOLECULE
*****
 13 12 0 0 0
SMALL
GASTEIGER

@<TRIPOS>ATOM
      1 C          -4.9548    3.6685   -0.1036 C.2     1  UNL1       -0.0642
      2 C          -3.6830    3.3937    0.1879 C.2     1  UNL1        0.0774
      3 H          -5.3537    4.6684    0.0217 H       1  UNL1        0.0565
      4 H          -5.6189    2.8936   -0.4715 H       1  UNL1        0.0565
      5 O          -3.1747    2.1327    0.0467 O.2     1  UNL1       -0.5003
      6 H          -2.9986    4.1418    0.5656 H       1  UNL1        0.1017
      7 C          -1.7464    2.1085    0.0918 C.3     1  UNL1        0.0859
      8 C          -1.2893    0.6747   -0.0992 C.3     1  UNL1       -0.0307
      9 H          -1.3948    2.4787    1.0622 H       1  UNL1        0.0693
     10 H          -1.3353    2.7361   -0.7080 H       1  UNL1        0.0693
     11 H          -1.7054    0.0304    0.6824 H       1  UNL1        0.0262
     12 H          -0.1982    0.6060   -0.0696 H       1  UNL1        0.0262
     13 H          -1.6427    0.2815   -1.0581 H       1  UNL1        0.0262
@<TRIPOS>BOND
     1     1     2    2
     2     1     3    1
     3     1     4    1
     4     2     5    1
     5     2     6    1
     6     5     7    1
     7     7     8    1
     8     7     9    1
     9     7    10    1
    10     8    11    1
    11     8    12    1
    12     8    13    1
