@<TRIPOS>MOLECULE
*****
 6 5 0 0 0
SMALL
GASTEIGER

@<TRIPOS>ATOM
      1 C          -1.4642   -1.7801    0.0080 C.2     1  UNL1        0.0995
      2 C          -1.5258   -3.1139   -0.0024 C.2     1  UNL1       -0.0689
      3 H          -0.6814   -3.7196    0.3080 H       1  UNL1        0.0558
      4 H          -2.4223   -3.6342   -0.3217 H       1  UNL1        0.0558
      5 CL         -0.0330   -0.9678    0.5180 Cl      1  UNL1       -0.0711
      6 CL         -2.8140   -0.8313   -0.4880 Cl      1  UNL1       -0.0711
@<TRIPOS>BOND
     1     1     2    2
     2     2     3    1
     3     2     4    1
     4     1     5    1
     5     1     6    1
