@<TRIPOS>MOLECULE
*****
 60 59 0 0 0
SMALL
GASTEIGER

@<TRIPOS>ATOM
      1 C         -12.4564    3.4053    0.0910 C.2     1  UNL1       -0.0635
      2 C         -11.1830    3.0436    0.2563 C.2     1  UNL1        0.0885
      3 H         -13.2604    2.7016    0.2777 H       1  UNL1        0.0565
      4 H         -12.7180    4.4059   -0.2354 H       1  UNL1        0.0565
      5 O         -10.1364    3.9366    0.0280 O.3     1  UNL1       -0.4342
      6 H         -10.8866    2.0554    0.5863 H       1  UNL1        0.1024
      7 C          -8.8790    3.3822   -0.0154 C.2     1  UNL1        0.3118
      8 O          -8.6048    2.1949    0.1092 O.2     1  UNL1       -0.2504
      9 C          -7.8700    4.4854   -0.2530 C.3     1  UNL1        0.0453
     10 C          -6.4406    3.9483   -0.2239 C.3     1  UNL1       -0.0430
     11 H          -7.9945    5.2397    0.5319 H       1  UNL1        0.0378
     12 H          -8.0802    4.9404   -1.2269 H       1  UNL1        0.0378
     13 C          -5.4067    5.0535   -0.4612 C.3     1  UNL1       -0.0526
     14 H          -6.3254    3.1727   -0.9919 H       1  UNL1        0.0270
     15 H          -6.2636    3.4579    0.7398 H       1  UNL1        0.0270
     16 C          -3.9726    4.5165   -0.4082 C.3     1  UNL1       -0.0530
     17 H          -5.5329    5.8615    0.2687 H       1  UNL1        0.0265
     18 H          -5.5798    5.4874   -1.4539 H       1  UNL1        0.0265
     19 C          -3.4871    4.2419    1.0222 C.3     1  UNL1       -0.0531
     20 H          -3.3050    5.2539   -0.8701 H       1  UNL1        0.0265
     21 H          -3.9074    3.6089   -1.0207 H       1  UNL1        0.0265
     22 C          -2.3897    3.1767    1.0707 C.3     1  UNL1       -0.0531
     23 H          -4.3152    3.8900    1.6460 H       1  UNL1        0.0265
     24 H          -3.1328    5.1754    1.4761 H       1  UNL1        0.0265
     25 C          -1.0502    3.6410    0.4969 C.3     1  UNL1       -0.0531
     26 H          -2.7423    2.2805    0.5454 H       1  UNL1        0.0265
     27 H          -2.2337    2.8799    2.1156 H       1  UNL1        0.0265
     28 C          -0.1797    2.4401    0.1181 C.3     1  UNL1       -0.0531
     29 H          -0.5382    4.2670    1.2377 H       1  UNL1        0.0265
     30 H          -1.1992    4.2590   -0.3954 H       1  UNL1        0.0265
     31 C           1.2491    2.8583   -0.2266 C.3     1  UNL1       -0.0531
     32 H          -0.6403    1.9328   -0.7388 H       1  UNL1        0.0265
     33 H          -0.1515    1.7161    0.9416 H       1  UNL1        0.0265
     34 C           1.9677    1.7772   -1.0401 C.3     1  UNL1       -0.0531
     35 H           1.7962    3.0641    0.7014 H       1  UNL1        0.0265
     36 H           1.2394    3.7890   -0.8074 H       1  UNL1        0.0265
     37 C           3.4514    2.1055   -1.2269 C.3     1  UNL1       -0.0531
     38 H           1.4925    1.7219   -2.0276 H       1  UNL1        0.0265
     39 H           1.8409    0.7933   -0.5731 H       1  UNL1        0.0265
     40 C           4.3424    1.3185   -0.2611 C.3     1  UNL1       -0.0531
     41 H           3.6210    3.1832   -1.1147 H       1  UNL1        0.0265
     42 H           3.7474    1.8479   -2.2514 H       1  UNL1        0.0265
     43 C           5.7533    1.9057   -0.2192 C.3     1  UNL1       -0.0531
     44 H           4.3795    0.2702   -0.5823 H       1  UNL1        0.0265
     45 H           3.9157    1.3323    0.7491 H       1  UNL1        0.0265
     46 C           6.7225    1.0239    0.5720 C.3     1  UNL1       -0.0531
     47 H           5.7013    2.8992    0.2444 H       1  UNL1        0.0265
     48 H           6.1359    2.0434   -1.2375 H       1  UNL1        0.0265
     49 C           8.0839    1.7100    0.7440 C.3     1  UNL1       -0.0533
     50 H           6.8292    0.0526    0.0734 H       1  UNL1        0.0265
     51 H           6.2981    0.8242    1.5633 H       1  UNL1        0.0265
     52 C           9.1992    1.0033   -0.0266 C.3     1  UNL1       -0.0559
     53 H           8.3450    1.7141    1.8097 H       1  UNL1        0.0265
     54 H           8.0301    2.7606    0.4344 H       1  UNL1        0.0265
     55 C          10.4882    1.8106    0.0088 C.3     1  UNL1       -0.0653
     56 H           8.9027    0.8483   -1.0701 H       1  UNL1        0.0263
     57 H           9.3791    0.0150    0.4129 H       1  UNL1        0.0263
     58 H          10.3592    2.7689   -0.5053 H       1  UNL1        0.0230
     59 H          11.2942    1.2649   -0.4913 H       1  UNL1        0.0230
     60 H          10.8000    2.0139    1.0382 H       1  UNL1        0.0230
@<TRIPOS>BOND
     1     1     2    2
     2     1     3    1
     3     1     4    1
     4     2     5    1
     5     2     6    1
     6     5     7    1
     7     7     8    2
     8     7     9    1
     9     9    10    1
    10     9    11    1
    11     9    12    1
    12    10    13    1
    13    10    14    1
    14    10    15    1
    15    13    16    1
    16    13    17    1
    17    13    18    1
    18    16    19    1
    19    16    20    1
    20    16    21    1
    21    19    22    1
    22    19    23    1
    23    19    24    1
    24    22    25    1
    25    22    26    1
    26    22    27    1
    27    25    28    1
    28    25    29    1
    29    25    30    1
    30    28    31    1
    31    28    32    1
    32    28    33    1
    33    31    34    1
    34    31    35    1
    35    31    36    1
    36    34    37    1
    37    34    38    1
    38    34    39    1
    39    37    40    1
    40    37    41    1
    41    37    42    1
    42    40    43    1
    43    40    44    1
    44    40    45    1
    45    43    46    1
    46    43    47    1
    47    43    48    1
    48    46    49    1
    49    46    50    1
    50    46    51    1
    51    49    52    1
    52    49    53    1
    53    49    54    1
    54    52    55    1
    55    52    56    1
    56    52    57    1
    57    55    58    1
    58    55    59    1
    59    55    60    1
