@<TRIPOS>MOLECULE
*****
 8 7 0 0 0
SMALL
GASTEIGER

@<TRIPOS>ATOM
      1 C          -3.1479    1.5760    0.0251 C.2     1  UNL1       -0.0942
      2 C          -1.8274    1.7476    0.1697 C.2     1  UNL1       -0.0101
      3 H          -3.5654    0.6414   -0.3416 H       1  UNL1        0.0536
      4 H          -3.8433    2.3715    0.2719 H       1  UNL1        0.0536
      5 C          -0.8479    0.6661   -0.1636 C.2     1  UNL1        0.2447
      6 H          -1.4198    2.6822    0.5357 H       1  UNL1        0.0659
      7 O          -1.2506   -0.4166   -0.5825 O.2     1  UNL1       -0.2746
      8 CL          0.8360    1.0652    0.0853 Cl      1  UNL1       -0.0389
@<TRIPOS>BOND
     1     1     2    2
     2     1     3    1
     3     1     4    1
     4     2     5    1
     5     2     6    1
     6     5     7    2
     7     5     8    1
