@<TRIPOS>MOLECULE
*****
 19 19 0 0 0
SMALL
GASTEIGER

@<TRIPOS>ATOM
      1 C          -3.5102    5.7462   -0.0000 C.ar    1  UNL1       -0.0472
      2 C          -3.4736    4.3458   -0.0000 C.ar    1  UNL1       -0.0538
      3 C          -2.2544    3.6616   -0.0000 C.ar    1  UNL1       -0.0255
      4 C          -1.0749    4.4202   -0.0000 C.ar    1  UNL1       -0.0538
      5 C          -1.1056    5.8238   -0.0000 C.ar    1  UNL1       -0.0472
      6 C          -2.3290    6.5022   -0.0000 C.ar    1  UNL1        0.0589
      7 H          -4.4793    6.2449   -0.0000 H       1  UNL1        0.0626
      8 H          -4.4201    3.8122   -0.0000 H       1  UNL1        0.0624
      9 H          -0.1058    3.9231   -0.0000 H       1  UNL1        0.0624
     10 H          -0.1494    6.3326   -0.0000 H       1  UNL1        0.0626
     11 C          -2.1430    2.1928   -0.0000 C.2     1  UNL1       -0.0617
     12 C          -3.1546    1.3144    0.0000 C.2     1  UNL1       -0.0981
     13 H          -1.1301    1.7932   -0.0000 H       1  UNL1        0.0618
     14 H          -4.1989    1.6031    0.0000 H       1  UNL1        0.0535
     15 H          -2.9481    0.2479   -0.0000 H       1  UNL1        0.0535
     16 C          -2.4789    7.9901   -0.0000 C.2     1  UNL1        0.3368
     17 O          -3.5747    8.5299   -0.0000 O.2     1  UNL1       -0.2451
     18 O          -1.3410    8.7123   -0.0000 O.3     1  UNL1       -0.4771
     19 H          -0.5006    8.2299    0.0000 H       1  UNL1        0.2954
@<TRIPOS>BOND
     1     1     2   ar
     2     2     3   ar
     3     3     4   ar
     4     4     5   ar
     5     5     6   ar
     6     1     6   ar
     7     1     7    1
     8     2     8    1
     9     4     9    1
    10     5    10    1
    11     3    11    1
    12    11    12    2
    13    11    13    1
    14    12    14    1
    15    12    15    1
    16     6    16    1
    17    16    17    2
    18    16    18    1
    19    18    19    1
