@<TRIPOS>MOLECULE
*****
 13 12 0 0 0
SMALL
GASTEIGER

@<TRIPOS>ATOM
      1 C          -4.2999    2.7000    0.0391 C.2     1  UNL1       -0.0642
      2 C          -3.1064    3.2930    0.0023 C.2     1  UNL1        0.0775
      3 H          -5.2143    3.2816    0.0065 H       1  UNL1        0.0565
      4 H          -4.3828    1.6201    0.1026 H       1  UNL1        0.0565
      5 O          -1.9492    2.5668    0.0428 O.2     1  UNL1       -0.4989
      6 H          -2.9963    4.3678   -0.0612 H       1  UNL1        0.1017
      7 C          -0.7766    3.3886    0.0004 C.3     1  UNL1        0.1021
      8 C           0.4416    2.4799    0.0541 C.3     1  UNL1        0.0567
      9 H          -0.7756    4.0726    0.8585 H       1  UNL1        0.0708
     10 H          -0.7709    3.9733   -0.9283 H       1  UNL1        0.0708
     11 CL          1.9440    3.4271    0.0059 Cl      1  UNL1       -0.1219
     12 H           0.4450    1.7831   -0.7903 H       1  UNL1        0.0463
     13 H           0.4400    1.8807    0.9704 H       1  UNL1        0.0463
@<TRIPOS>BOND
     1     1     2    2
     2     1     3    1
     3     1     4    1
     4     2     5    1
     5     2     6    1
     6     5     7    1
     7     7     8    1
     8     7     9    1
     9     7    10    1
    10     8    11    1
    11     8    12    1
    12     8    13    1
