@<TRIPOS>MOLECULE
*****
 6 5 0 0 0
SMALL
GASTEIGER

@<TRIPOS>ATOM
      1 C          -0.7010    0.9700    0.0024 C.2     1  UNL1       -0.0919
      2 C          -0.6452   -0.3614   -0.0714 C.2     1  UNL1       -0.0257
      3 H           0.1270    1.5545    0.3905 H       1  UNL1        0.0540
      4 H          -1.5848    1.5056   -0.3274 H       1  UNL1        0.0540
      5 BR          0.8128   -1.3725    0.4633 Br      1  UNL1       -0.0593
      6 H          -1.4668   -0.9539   -0.4574 H       1  UNL1        0.0690
@<TRIPOS>BOND
     1     1     2    2
     2     1     3    1
     3     1     4    1
     4     2     5    1
     5     2     6    1
