@<TRIPOS>MOLECULE
*****
 14 14 0 0 0
SMALL
GASTEIGER

@<TRIPOS>ATOM
      1 C          -1.6852    2.8641   -0.0009 C.ar    1  UNL11      -0.0606
      2 C          -1.6217    1.4719   -0.0006 C.ar    1  UNL11      -0.0617
      3 C          -0.3821    0.8301   -0.0009 C.ar    1  UNL11      -0.0606
      4 C           0.7980    1.5804   -0.0013 C.ar    1  UNL11      -0.0463
      5 C           0.7358    2.9749   -0.0014 C.ar    1  UNL11       0.0247
      6 C          -0.5082    3.6137   -0.0013 C.ar    1  UNL11      -0.0463
      7 H          -0.5646    4.6997   -0.0012 H       1  UNL11       0.0630
      8 H          -2.6484    3.3676   -0.0005 H       1  UNL11       0.0618
      9 H          -2.5384    0.8875   -0.0001 H       1  UNL11       0.0618
     10 H          -0.3360   -0.2560   -0.0005 H       1  UNL11       0.0618
     11 H           1.7579    1.0707   -0.0011 H       1  UNL11       0.0630
     12 C           1.9249    3.7723   -0.0002 C.1     1  UNL11      -0.0697
     13 C           2.8523    4.5374    0.0034 C.1     1  UNL11      -0.1139
     14 H           3.6190    5.1700    0.0064 H       1  UNL1        0.1232
@<TRIPOS>BOND
     1     1     2   ar
     2     2     3   ar
     3     3     4   ar
     4     4     5   ar
     5     5     6   ar
     6     6     1   ar
     7     6     7    1
     8     1     8    1
     9     2     9    1
    10     3    10    1
    11     4    11    1
    12     5    12    1
    13    12    13    3
    14    13    14    1
