@<TRIPOS>MOLECULE
*****
 8 7 0 0 0
SMALL
GASTEIGER

@<TRIPOS>ATOM
      1 C           1.1111    0.2687   -0.2203 C.2     1  UNL1       -0.0957
      2 C           2.4383    0.1427   -0.1159 C.2     1  UNL1       -0.0295
      3 C           3.0337   -0.8972    0.7460 C.2     1  UNL1        0.1425
      4 O           4.2475   -1.0205    0.8482 O.2     1  UNL1       -0.2963
      5 H           0.6835    1.0374   -0.8574 H       1  UNL1        0.0536
      6 H           0.4191   -0.3753    0.3135 H       1  UNL1        0.0536
      7 H           3.1298    0.7851   -0.6483 H       1  UNL1        0.0644
      8 H           2.3276   -1.5493    1.2864 H       1  UNL1        0.1075
@<TRIPOS>BOND
     1     1     2    2
     2     2     3    1
     3     3     4    2
     4     1     5    1
     5     1     6    1
     6     2     7    1
     7     3     8    1
