@<TRIPOS>MOLECULE
*****
 15 14 0 0 0
SMALL
GASTEIGER

@<TRIPOS>ATOM
      1 C          -3.4896    2.3974    0.1070 C.2     1  UNL1       -0.0919
      2 C          -3.3853    3.7168   -0.1006 C.2     1  UNL1        0.0154
      3 H          -4.4592    1.9109    0.0773 H       1  UNL1        0.0537
      4 H          -2.6250    1.7727    0.3094 H       1  UNL1        0.0537
      5 C          -2.1215    4.4849   -0.0847 C.2     1  UNL1        0.3314
      6 H          -4.2672    4.3158   -0.3014 H       1  UNL1        0.0683
      7 O          -2.0925    5.6894   -0.2888 O.2     1  UNL1       -0.2456
      8 O          -1.0556    3.6914    0.1776 O.3     1  UNL1       -0.4619
      9 C           0.1969    4.3849    0.2047 C.3     1  UNL1        0.0900
     10 C           1.2873    3.3801    0.5219 C.3     1  UNL1       -0.0306
     11 H           0.1743    5.1618    0.9773 H       1  UNL1        0.0695
     12 H           0.3877    4.8416   -0.7729 H       1  UNL1        0.0695
     13 H           1.0997    2.9002    1.4882 H       1  UNL1        0.0262
     14 H           2.2673    3.8642    0.5522 H       1  UNL1        0.0262
     15 H           1.3087    2.5842   -0.2299 H       1  UNL1        0.0262
@<TRIPOS>BOND
     1     1     2    2
     2     1     3    1
     3     1     4    1
     4     2     5    1
     5     2     6    1
     6     5     7    2
     7     5     8    1
     8     8     9    1
     9     9    10    1
    10     9    11    1
    11     9    12    1
    12    10    13    1
    13    10    14    1
    14    10    15    1
