@<TRIPOS>MOLECULE
*****
 8 7 0 0 0
SMALL
GASTEIGER

@<TRIPOS>ATOM
      1 CL         -3.2775    2.7790    0.0000 Cl      1  UNL1       -0.0389
      2 C          -1.8763    1.7332   -0.0000 C.2     1  UNL1        0.2447
      3 C          -0.5495    2.4257   -0.0000 C.2     1  UNL1       -0.0101
      4 C           0.6042    1.7453   -0.0000 C.2     1  UNL1       -0.0942
      5 H          -0.5621    3.5090   -0.0000 H       1  UNL1        0.0659
      6 H           0.6260    0.6582   -0.0000 H       1  UNL1        0.0536
      7 H           1.5570    2.2645   -0.0000 H       1  UNL1        0.0536
      8 O          -1.9259    0.5054   -0.0000 O.2     1  UNL1       -0.2746
@<TRIPOS>BOND
     1     1     2    1
     2     2     3    1
     3     3     4    2
     4     3     5    1
     5     4     6    1
     6     4     7    1
     7     2     8    2
