@<TRIPOS>MOLECULE
*****
 23 22 0 0 0
SMALL
GASTEIGER

@<TRIPOS>ATOM
      1 C           0.9400    0.1200    0.3783 C.3     1  UNL1       -0.0589
      2 C           2.3630   -0.1468   -0.0890 C.3     1  UNL1        0.0157
      3 C           2.9032    0.9132   -1.0601 C.3     1  UNL1        0.2501
      4 C           2.2386    0.9350   -2.4370 C.3     1  UNL1        0.1598
      5 O           0.8979    1.4598   -2.3868 O.3     1  UNL1       -0.4546
      6 C           0.8041    2.8102   -2.3284 C.2     1  UNL1        0.3316
      7 O           1.7460    3.5850   -2.2720 O.2     1  UNL1       -0.2456
      8 C          -0.6004    3.2672   -2.3142 C.2     1  UNL1        0.0154
      9 C          -1.6723    2.4647   -2.3526 C.2     1  UNL1       -0.0919
     10 N           4.3675    0.6175   -1.2795 N.pl3   1  UNL1        0.0445
     11 O           5.1804    1.3841   -0.7489 O.2     1  UNL1        0.0348
     12 O           4.6570   -0.3815   -1.9523 O.co2   1  UNL1       -0.5814
     13 H           0.6715   -0.5794    1.1768 H       1  UNL1        0.0232
     14 H           0.2191   -0.0196   -0.4318 H       1  UNL1        0.0232
     15 H           0.8361    1.1366    0.7701 H       1  UNL1        0.0232
     16 H           2.4070   -1.1451   -0.5425 H       1  UNL1        0.0330
     17 H           3.0087   -0.1852    0.7984 H       1  UNL1        0.0330
     18 H           2.8527    1.8996   -0.5850 H       1  UNL1        0.1160
     19 H           2.1563   -0.0798   -2.8446 H       1  UNL1        0.0767
     20 H           2.8246    1.5096   -3.1670 H       1  UNL1        0.0767
     21 H          -0.7191    4.3449   -2.2681 H       1  UNL1        0.0683
     22 H          -1.5889    1.3834   -2.4006 H       1  UNL1        0.0537
     23 H          -2.6733    2.8847   -2.3391 H       1  UNL1        0.0537
@<TRIPOS>BOND
     1     1     2    1
     2     2     3    1
     3     3     4    1
     4     4     5    1
     5     5     6    1
     6     6     7    2
     7     6     8    1
     8     8     9    2
     9     3    10    1
    10    10    11    2
    11    10    12    1
    12     1    13    1
    13     1    14    1
    14     1    15    1
    15     2    16    1
    16     2    17    1
    17     3    18    1
    18     4    19    1
    19     4    20    1
    20     8    21    1
    21     9    22    1
    22     9    23    1
