@<TRIPOS>MOLECULE
*****
 63 62 0 0 0
SMALL
GASTEIGER

@<TRIPOS>ATOM
      1 C          -4.5936    1.5038   -0.0047 C.2     1  UNL1       -0.0919
      2 C          -3.4103    2.1223    0.0862 C.2     1  UNL1        0.0154
      3 H          -4.6630    0.4344   -0.1854 H       1  UNL1        0.0537
      4 H          -5.5186    2.0600    0.1003 H       1  UNL1        0.0537
      5 C          -2.1469    1.3695   -0.0569 C.2     1  UNL1        0.3314
      6 H          -3.3389    3.1882    0.2657 H       1  UNL1        0.0683
      7 O          -2.0518    0.1706   -0.2574 O.2     1  UNL1       -0.2456
      8 O          -1.1310    2.2545    0.0738 O.3     1  UNL1       -0.4616
      9 C           0.1732    1.6760   -0.0485 C.3     1  UNL1        0.0928
     10 C           1.1800    2.8106    0.0722 C.3     1  UNL1       -0.0185
     11 H           0.2716    1.1841   -1.0234 H       1  UNL1        0.0697
     12 H           0.3272    0.9429    0.7519 H       1  UNL1        0.0697
     13 C           2.6131    2.3101   -0.0463 C.3     1  UNL1       -0.0500
     14 H           1.0361    3.3239    1.0314 H       1  UNL1        0.0298
     15 H           0.9750    3.5606   -0.7021 H       1  UNL1        0.0298
     16 C           3.5982    3.4719    0.0544 C.3     1  UNL1       -0.0530
     17 H           2.7483    1.7936   -1.0044 H       1  UNL1        0.0266
     18 H           2.8178    1.5806    0.7467 H       1  UNL1        0.0266
     19 C           5.0341    2.9745   -0.0562 C.3     1  UNL1       -0.0531
     20 H           3.4610    3.9924    1.0100 H       1  UNL1        0.0265
     21 H           3.3967    4.1984   -0.7423 H       1  UNL1        0.0265
     22 C           6.0258    4.1307    0.0319 C.3     1  UNL1       -0.0531
     23 H           5.1701    2.4457   -1.0077 H       1  UNL1        0.0265
     24 H           5.2363    2.2535    0.7455 H       1  UNL1        0.0265
     25 C           7.4527    3.6037   -0.0531 C.3     1  UNL1       -0.0531
     26 H           5.8853    4.6717    0.9755 H       1  UNL1        0.0265
     27 H           5.8418    4.8426   -0.7819 H       1  UNL1        0.0265
     28 C           8.4734    4.7327    0.0305 C.3     1  UNL1       -0.0531
     29 H           7.5874    3.0574   -0.9950 H       1  UNL1        0.0265
     30 H           7.6282    2.8896    0.7610 H       1  UNL1        0.0265
     31 C           9.8851    4.1592   -0.0258 C.3     1  UNL1       -0.0531
     32 H           8.3361    5.2936    0.9628 H       1  UNL1        0.0265
     33 H           8.3210    5.4350   -0.7979 H       1  UNL1        0.0265
     34 C          10.9364    5.2596    0.0355 C.3     1  UNL1       -0.0531
     35 H          10.0111    3.5823   -0.9503 H       1  UNL1        0.0265
     36 H          10.0319    3.4641    0.8102 H       1  UNL1        0.0265
     37 C          12.3369    4.6564   -0.0194 C.3     1  UNL1       -0.0531
     38 H          10.8162    5.8380    0.9595 H       1  UNL1        0.0265
     39 H          10.7966    5.9532   -0.8026 H       1  UNL1        0.0265
     40 C          13.3990    5.7470    0.0303 C.3     1  UNL1       -0.0531
     41 H          12.4511    4.0707   -0.9399 H       1  UNL1        0.0265
     42 H          12.4751    3.9665    0.8221 H       1  UNL1        0.0265
     43 C          14.8025    5.1497   -0.0258 C.3     1  UNL1       -0.0531
     44 H          13.2829    6.3327    0.9504 H       1  UNL1        0.0265
     45 H          13.2577    6.4360   -0.8116 H       1  UNL1        0.0265
     46 C          15.8501    6.2566    0.0270 C.3     1  UNL1       -0.0531
     47 H          14.9208    4.5684   -0.9483 H       1  UNL1        0.0265
     48 H          14.9472    4.4593    0.8141 H       1  UNL1        0.0265
     49 C          17.2675    5.6956   -0.0484 C.3     1  UNL1       -0.0531
     50 H          15.7306    6.8300    0.9546 H       1  UNL1        0.0265
     51 H          15.6867    6.9525   -0.8051 H       1  UNL1        0.0265
     52 C          18.2876    6.8321   -0.0216 C.3     1  UNL1       -0.0533
     53 H          17.3856    5.1116   -0.9692 H       1  UNL1        0.0265
     54 H          17.4438    5.0151    0.7934 H       1  UNL1        0.0265
     55 C          19.7170    6.3094   -0.1286 C.3     1  UNL1       -0.0559
     56 H          18.1739    7.4043    0.9075 H       1  UNL1        0.0265
     57 H          18.0864    7.5218   -0.8506 H       1  UNL1        0.0265
     58 C          20.7141    7.4564   -0.1521 C.3     1  UNL1       -0.0653
     59 H          19.8304    5.7138   -1.0417 H       1  UNL1        0.0263
     60 H          19.9383    5.6516    0.7197 H       1  UNL1        0.0263
     61 H          20.5346    8.1117   -1.0108 H       1  UNL1        0.0230
     62 H          21.7354    7.0713   -0.2254 H       1  UNL1        0.0230
     63 H          20.6399    8.0585    0.7592 H       1  UNL1        0.0230
@<TRIPOS>BOND
     1     1     2    2
     2     1     3    1
     3     1     4    1
     4     2     5    1
     5     2     6    1
     6     5     7    2
     7     5     8    1
     8     8     9    1
     9     9    10    1
    10     9    11    1
    11     9    12    1
    12    10    13    1
    13    10    14    1
    14    10    15    1
    15    13    16    1
    16    13    17    1
    17    13    18    1
    18    16    19    1
    19    16    20    1
    20    16    21    1
    21    19    22    1
    22    19    23    1
    23    19    24    1
    24    22    25    1
    25    22    26    1
    26    22    27    1
    27    25    28    1
    28    25    29    1
    29    25    30    1
    30    28    31    1
    31    28    32    1
    32    28    33    1
    33    31    34    1
    34    31    35    1
    35    31    36    1
    36    34    37    1
    37    34    38    1
    38    34    39    1
    39    37    40    1
    40    37    41    1
    41    37    42    1
    42    40    43    1
    43    40    44    1
    44    40    45    1
    45    43    46    1
    46    43    47    1
    47    43    48    1
    48    46    49    1
    49    46    50    1
    50    46    51    1
    51    49    52    1
    52    49    53    1
    53    49    54    1
    54    52    55    1
    55    52    56    1
    56    52    57    1
    57    55    58    1
    58    55    59    1
    59    55    60    1
    60    58    61    1
    61    58    62    1
    62    58    63    1
