@<TRIPOS>MOLECULE
*****
 8 7 0 0 0
SMALL
GASTEIGER

@<TRIPOS>ATOM
      1 CL         -1.4607    2.3635   -0.0000 Cl      1  UNL1       -0.0389
      2 C          -0.1197    1.2416    0.0000 C.2     1  UNL1        0.2447
      3 C           1.2434    1.8594   -0.0000 C.2     1  UNL1       -0.0101
      4 C           2.3577    1.1161    0.0000 C.2     1  UNL1       -0.0942
      5 H           1.2910    2.9417   -0.0000 H       1  UNL1        0.0659
      6 H           2.3191    0.0295    0.0000 H       1  UNL1        0.0536
      7 H           3.3378    1.5817    0.0000 H       1  UNL1        0.0536
      8 O          -0.2374    0.0184    0.0000 O.2     1  UNL1       -0.2746
@<TRIPOS>BOND
     1     1     2    1
     2     2     3    1
     3     3     4    2
     4     3     5    1
     5     4     6    1
     6     4     7    1
     7     2     8    2
