@<TRIPOS>MOLECULE
*****
 10 9 0 0 0
SMALL
GASTEIGER

@<TRIPOS>ATOM
      1 C          -2.9542    2.0377    0.0000 C.2     1  UNL1       -0.0803
      2 C          -1.8537    2.8016    0.0000 C.2     1  UNL1        0.0334
      3 C          -0.5235    2.2234    0.0000 C.2     1  UNL1       -0.0511
      4 C           0.6430    2.8832    0.0000 C.2     1  UNL1       -0.0973
      5 H          -3.9462    2.4787    0.0000 H       1  UNL1        0.0549
      6 H          -2.9010    0.9544    0.0000 H       1  UNL1        0.0549
      7 H          -0.4799    1.1350    0.0000 H       1  UNL1        0.0626
      8 H           0.7072    3.9663   -0.0000 H       1  UNL1        0.0535
      9 H           1.5818    2.3377    0.0000 H       1  UNL1        0.0535
     10 CL         -2.0526    4.5238    0.0000 Cl      1  UNL1       -0.0842
@<TRIPOS>BOND
     1     1     2    2
     2     2     3    1
     3     3     4    2
     4     1     5    1
     5     1     6    1
     6     3     7    1
     7     4     8    1
     8     4     9    1
     9     2    10    1
