@<TRIPOS>MOLECULE
*****
 18 17 0 0 0
SMALL
GASTEIGER

@<TRIPOS>ATOM
      1 C          -0.0775    1.0675   -0.1455 C.2     1  UNL1       -0.0804
      2 C          -0.3382    2.1984   -0.8190 C.2     1  UNL1        0.0183
      3 C          -0.2291   -0.2998   -0.7251 C.3     1  UNL1       -0.0463
      4 H           0.2666    1.1195    0.8868 H       1  UNL1        0.0571
      5 H          -0.5751   -0.2731   -1.7632 H       1  UNL1        0.0272
      6 H          -0.9522   -0.8751   -0.1388 H       1  UNL1        0.0272
      7 H           0.7308   -0.8245   -0.6986 H       1  UNL1        0.0272
      8 C          -0.1638    3.5181   -0.1749 C.2     1  UNL1        0.3316
      9 O           0.2199    3.7018    0.9680 O.2     1  UNL1       -0.2456
     10 O          -0.5052    4.4712   -1.0777 O.3     1  UNL1       -0.4618
     11 C          -0.3832    5.8093   -0.5817 C.3     1  UNL1        0.0900
     12 C          -0.8053    6.7630   -1.6823 C.3     1  UNL1       -0.0306
     13 H           0.6576    6.0060   -0.3009 H       1  UNL1        0.0695
     14 H          -1.0326    5.9418    0.2911 H       1  UNL1        0.0695
     15 H          -0.1787    6.6287   -2.5702 H       1  UNL1        0.0262
     16 H          -0.7282    7.8018   -1.3493 H       1  UNL1        0.0262
     17 H          -1.8380    6.5655   -1.9885 H       1  UNL1        0.0262
     18 H          -0.6823    2.1913   -1.8461 H       1  UNL1        0.0685
@<TRIPOS>BOND
     1     1     2    2
     2     1     3    1
     3     1     4    1
     4     3     5    1
     5     3     6    1
     6     3     7    1
     7     2     8    1
     8     8     9    2
     9     8    10    1
    10    10    11    1
    11    11    12    1
    12    11    13    1
    13    11    14    1
    14    12    15    1
    15    12    16    1
    16    12    17    1
    17     2    18    1
