@<TRIPOS>MOLECULE
*****
 18 17 0 0 0
SMALL
GASTEIGER

@<TRIPOS>ATOM
      1 C          -0.0986    1.0638   -0.1825 C.2     1  UNL1       -0.0618
      2 C          -0.3824    2.1672   -0.8979 C.2     1  UNL1        0.1206
      3 C          -0.2020   -0.3621   -0.6208 C.3     1  UNL1       -0.0449
      4 H           0.2516    1.1870    0.8427 H       1  UNL1        0.0586
      5 H          -0.5494   -0.4824   -1.6495 H       1  UNL1        0.0272
      6 H          -0.8977   -0.8977    0.0328 H       1  UNL1        0.0272
      7 H           0.7781   -0.8428   -0.5401 H       1  UNL1        0.0272
      8 C          -0.2030    3.5063   -0.2547 C.2     1  UNL1        0.3502
      9 O           0.1925    3.6656    0.8932 O.2     1  UNL1       -0.2440
     10 O          -0.5332    4.5113   -1.1071 O.3     1  UNL1       -0.4608
     11 CL         -0.9439    2.0909   -2.5299 Cl      1  UNL1       -0.0765
     12 C          -0.3806    5.8266   -0.5614 C.3     1  UNL1        0.0900
     13 C          -0.7922    6.8294   -1.6215 C.3     1  UNL1       -0.0306
     14 H           0.6662    5.9915   -0.2828 H       1  UNL1        0.0695
     15 H          -1.0202    5.9381    0.3214 H       1  UNL1        0.0695
     16 H          -0.1786    6.7134   -2.5211 H       1  UNL1        0.0262
     17 H          -0.6874    7.8532   -1.2517 H       1  UNL1        0.0262
     18 H          -1.8324    6.6668   -1.9225 H       1  UNL1        0.0262
@<TRIPOS>BOND
     1     1     2    2
     2     1     3    1
     3     1     4    1
     4     3     5    1
     5     3     6    1
     6     3     7    1
     7     2     8    1
     8     8     9    2
     9     8    10    1
    10     2    11    1
    11    10    12    1
    12    12    13    1
    13    12    14    1
    14    12    15    1
    15    13    16    1
    16    13    17    1
    17    13    18    1
