@<TRIPOS>MOLECULE
*****
 12 11 0 0 0
SMALL
GASTEIGER

@<TRIPOS>ATOM
      1 C          -0.0847    1.0831   -0.1689 C.2     1  UNL1       -0.0804
      2 C          -0.3559    2.1882   -0.8796 C.2     1  UNL1        0.0182
      3 C          -0.2235   -0.3037   -0.7039 C.3     1  UNL1       -0.0463
      4 H           0.2587    1.1721    0.8610 H       1  UNL1        0.0571
      5 H          -0.5717   -0.3138   -1.7416 H       1  UNL1        0.0272
      6 H          -0.9398   -0.8669   -0.0980 H       1  UNL1        0.0272
      7 H           0.7416   -0.8176   -0.6625 H       1  UNL1        0.0272
      8 C          -0.1932    3.5195   -0.2787 C.2     1  UNL1        0.3292
      9 O           0.1774    3.7856    0.8478 O.2     1  UNL1       -0.2458
     10 O          -0.5204    4.4690   -1.1693 O.3     1  UNL1       -0.4775
     11 H          -0.6995    2.1476   -1.9059 H       1  UNL1        0.0685
     12 H          -0.3798    5.3045   -0.6775 H       1  UNL1        0.2954
@<TRIPOS>BOND
     1     1     2    2
     2     1     3    1
     3     1     4    1
     4     3     5    1
     5     3     6    1
     6     3     7    1
     7     2     8    1
     8     8     9    2
     9     8    10    1
    10     2    11    1
    11    10    12    1
