@<TRIPOS>MOLECULE
*****
 6 5 0 0 0
SMALL
GASTEIGER

@<TRIPOS>ATOM
      1 C          -0.2900    3.8235   -1.3960 C.2     1  UNL1       -0.1058
      2 C          -0.3247    2.4899   -1.4643 C.2     1  UNL1       -0.1058
      3 H           0.1100    4.3292   -0.5228 H       1  UNL1        0.0529
      4 H          -0.6609    4.4357   -2.2121 H       1  UNL1        0.0529
      5 H           0.0463    1.8777   -0.6482 H       1  UNL1        0.0529
      6 H          -0.7247    1.9842   -2.3375 H       1  UNL1        0.0529
@<TRIPOS>BOND
     1     1     2    2
     2     1     3    1
     3     1     4    1
     4     2     5    1
     5     2     6    1
