@<TRIPOS>MOLECULE
*****
 26 27 0 0 0
SMALL
GASTEIGER

@<TRIPOS>ATOM
      1 C           0.0648   -0.7710    0.2866 C.2     1  UNL1       -0.0904
      2 C           0.1811   -1.9931    0.8405 C.2     1  UNL1       -0.0178
      3 H           0.3110    0.1343    0.8336 H       1  UNL1        0.0541
      4 H          -0.2806   -0.6322   -0.7335 H       1  UNL1        0.0541
      5 C           0.6363   -2.0822    2.2514 C.ar    1  UNL1       -0.0179
      6 C          -0.1533   -3.1753    0.0060 C.ar    1  UNL1       -0.0179
      7 C           1.6798   -2.9551    2.5907 C.ar    1  UNL1       -0.0540
      8 C           0.0210   -1.3392    3.2700 C.ar    1  UNL1       -0.0540
      9 C           0.4515   -1.4545    4.5941 C.ar    1  UNL1       -0.0612
     10 C           1.4968   -2.3182    4.9153 C.ar    1  UNL1       -0.0617
     11 C           2.1098   -3.0698    3.9148 C.ar    1  UNL1       -0.0612
     12 C           0.4076   -3.3581   -1.2670 C.ar    1  UNL1       -0.0540
     13 C          -1.0191   -4.1572    0.5078 C.ar    1  UNL1       -0.0540
     14 C          -1.3308   -5.2873   -0.2519 C.ar    1  UNL1       -0.0612
     15 C           0.0955   -4.4886   -2.0262 C.ar    1  UNL1       -0.0612
     16 C          -0.7749   -5.4513   -1.5191 C.ar    1  UNL1       -0.0617
     17 H          -1.4606   -4.0456    1.4959 H       1  UNL1        0.0624
     18 H          -2.0064   -6.0388    0.1480 H       1  UNL1        0.0618
     19 H           1.1014   -2.6254   -1.6722 H       1  UNL1        0.0624
     20 H           0.5359   -4.6184   -3.0113 H       1  UNL1        0.0618
     21 H          -1.0169   -6.3312   -2.1093 H       1  UNL1        0.0618
     22 H           2.1681   -3.5504    1.8221 H       1  UNL1        0.0624
     23 H          -0.8068   -0.6725    3.0405 H       1  UNL1        0.0624
     24 H          -0.0328   -0.8731    5.3742 H       1  UNL1        0.0618
     25 H           1.8310   -2.4087    5.9455 H       1  UNL1        0.0618
     26 H           2.9223   -3.7475    4.1631 H       1  UNL1        0.0618
@<TRIPOS>BOND
     1     1     2    2
     2     1     3    1
     3     1     4    1
     4     2     5    1
     5     2     6    1
     6     5     7   ar
     7     5     8   ar
     8     8     9   ar
     9     9    10   ar
    10    10    11   ar
    11    11     7   ar
    12     6    12   ar
    13     6    13   ar
    14    13    14   ar
    15    12    15   ar
    16    15    16   ar
    17    16    14   ar
    18    13    17    1
    19    14    18    1
    20    12    19    1
    21    15    20    1
    22    16    21    1
    23     7    22    1
    24     8    23    1
    25     9    24    1
    26    10    25    1
    27    11    26    1
