@<TRIPOS>MOLECULE
*****
 24 23 0 0 0
SMALL
GASTEIGER

@<TRIPOS>ATOM
      1 C          -0.2417    1.9538   -1.1405 C.2     1  UNL11       0.0292
      2 C          -0.0664    0.8701   -0.3732 C.2     1  UNL11       0.0292
      3 C          -0.0747    3.2915   -0.5503 C.2     1  UNL11       0.3321
      4 H          -0.4997    1.8929   -2.1916 H       1  UNL11       0.0691
      5 C          -0.2228   -0.4653   -0.9718 C.2     1  UNL11       0.3321
      6 H           0.1924    0.9292    0.6777 H       1  UNL11       0.0691
      7 O          -0.5006   -0.6802   -2.1397 O.2     1  UNL11      -0.2456
      8 O           0.2217    3.5127    0.6117 O.2     1  UNL11      -0.2456
      9 O          -0.3016    4.2104   -1.5195 O.3     1  UNL11      -0.4618
     10 O          -0.0008   -1.3908   -0.0076 O.3     1  UNL11      -0.4618
     11 C          -0.1081   -2.7443   -0.4648 C.3     1  UNL11       0.0900
     12 C          -0.1564    5.5675   -1.0842 C.3     1  UNL11       0.0900
     13 C          -0.4663    6.4760   -2.2580 C.3     1  UNL11      -0.0306
     14 H           0.8462    5.7358   -0.7505 H       1  UNL11       0.0695
     15 H          -0.8246    5.7696   -0.2733 H       1  UNL11       0.0695
     16 H           0.2082    6.2638   -3.0610 H       1  UNL11       0.0262
     17 H          -0.3540    7.4970   -1.9582 H       1  UNL11       0.0262
     18 H          -1.4718    6.3083   -2.5831 H       1  UNL11       0.0262
     19 C           0.1271   -3.6649    0.7168 C.3     1  UNL11      -0.0306
     20 H           0.6262   -2.9304   -1.2205 H       1  UNL11       0.0695
     21 H          -1.0788   -2.9177   -0.8803 H       1  UNL11       0.0695
     22 H           1.0999   -3.4822    1.1232 H       1  UNL11       0.0262
     23 H           0.0606   -4.6830    0.3945 H       1  UNL11       0.0262
     24 H          -0.6133   -3.4791    1.4666 H       1  UNL11       0.0262
@<TRIPOS>BOND
     1     1     2    2
     2     1     3    1
     3     1     4    1
     4     2     5    1
     5     2     6    1
     6     5     7    2
     7     3     8    2
     8     3     9    1
     9     5    10    1
    10    10    11    1
    11     9    12    1
    12    13    12    1
    13    12    14    1
    14    12    15    1
    15    13    16    1
    16    13    17    1
    17    13    18    1
    18    19    11    1
    19    11    20    1
    20    11    21    1
    21    19    22    1
    22    19    23    1
    23    19    24    1
