@<TRIPOS>MOLECULE
*****
 14 13 0 0 0
SMALL
GASTEIGER

@<TRIPOS>ATOM
      1 C          -2.3452    2.5773    0.0000 C.2     1  UNL1        0.1262
      2 C          -1.1235    1.9871   -0.0000 C.2     1  UNL1        0.0888
      3 C          -0.7578    0.5419   -0.0000 C.2     1  UNL1        0.0615
      4 C           0.5184    0.0855    0.0000 C.2     1  UNL1       -0.0424
      5 C           0.9760   -1.2935    0.0000 C.2     1  UNL1       -0.0674
      6 H           1.3464    0.7904    0.0000 H       1  UNL1        0.0632
      7 C           2.2728   -1.6279    0.0000 C.2     1  UNL1       -0.0986
      8 H           0.2441   -2.0976   -0.0000 H       1  UNL1        0.0612
      9 H           3.0674   -0.8884    0.0000 H       1  UNL1        0.0535
     10 H           2.5702   -2.6726   -0.0000 H       1  UNL1        0.0535
     11 CL         -3.8865    1.7798    0.0000 Cl      1  UNL1       -0.0689
     12 CL         -2.5444    4.3241    0.0000 Cl      1  UNL1       -0.0689
     13 CL          0.2771    3.0993   -0.0000 Cl      1  UNL1       -0.0796
     14 CL         -2.0244   -0.6672   -0.0000 Cl      1  UNL1       -0.0820
@<TRIPOS>BOND
     1     1     2    2
     2     2     3    1
     3     3     4    2
     4     4     5    1
     5     4     6    1
     6     5     7    2
     7     5     8    1
     8     7     9    1
     9     7    10    1
    10     1    11    1
    11     1    12    1
    12     2    13    1
    13     3    14    1
