@<TRIPOS>MOLECULE
*****
 13 12 0 0 0
SMALL
GASTEIGER

@<TRIPOS>ATOM
      1 C           0.4918    2.2983   -3.5538 C.3     1  UNL1       -0.0403
      2 C           0.2405    1.7753   -2.1630 C.2     1  UNL1       -0.0581
      3 H           1.5150    2.0699   -3.8721 H       1  UNL1        0.0277
      4 H           0.3635    3.3846   -3.6150 H       1  UNL1        0.0277
      5 H          -0.2048    1.8442   -4.2671 H       1  UNL1        0.0277
      6 C          -0.1092    2.6103   -1.1714 C.2     1  UNL1       -0.0958
      7 H          -0.2173    3.6764   -1.3470 H       1  UNL1        0.0537
      8 H          -0.3005    2.2746   -0.1588 H       1  UNL1        0.0537
      9 C           0.4041    0.3373   -2.0091 C.2     1  UNL1       -0.0665
     10 C           0.2623   -0.3790   -0.8862 C.2     1  UNL1       -0.0985
     11 H           0.6732   -0.2049   -2.9159 H       1  UNL1        0.0614
     12 H          -0.0020    0.0614    0.0677 H       1  UNL1        0.0535
     13 H           0.4134   -1.4541   -0.9026 H       1  UNL1        0.0535
@<TRIPOS>BOND
     1     1     2    1
     2     1     3    1
     3     1     4    1
     4     1     5    1
     5     2     6    2
     6     6     7    1
     7     6     8    1
     8     2     9    1
     9     9    10    2
    10     9    11    1
    11    10    12    1
    12    10    13    1
