@<TRIPOS>MOLECULE
*****
 14 13 0 0 0
SMALL
GASTEIGER

@<TRIPOS>ATOM
      1 C           0.5247    2.7131   -3.9579 C.3     1  UNL1       -0.0018
      2 C           0.3723    1.8303   -2.7452 C.2     1  UNL1        0.1554
      3 H           1.5479    2.6597   -4.3387 H       1  UNL1        0.0309
      4 H           0.3218    3.7510   -3.6759 H       1  UNL1        0.0309
      5 H          -0.1941    2.4229   -4.7285 H       1  UNL1        0.0309
      6 C           0.6211    0.3531   -2.8684 C.2     1  UNL1       -0.0154
      7 C           0.4478   -0.4369   -1.6042 C.3     1  UNL1       -0.0370
      8 H           1.1385   -0.0824   -0.8320 H       1  UNL1        0.0278
      9 H           0.6446   -1.5034   -1.7583 H       1  UNL1        0.0278
     10 H          -0.5766   -0.3415   -1.2291 H       1  UNL1        0.0278
     11 C           0.9739   -0.2210   -4.0298 C.2     1  UNL1       -0.0925
     12 H           1.1036    0.3313   -4.9538 H       1  UNL1        0.0538
     13 H           1.1474   -1.2923   -4.0888 H       1  UNL1        0.0538
     14 O           0.0452    2.3068   -1.6580 O.2     1  UNL1       -0.2927
@<TRIPOS>BOND
     1     1     2    1
     2     1     3    1
     3     1     4    1
     4     1     5    1
     5     2     6    1
     6     6     7    1
     7     7     8    1
     8     7     9    1
     9     7    10    1
    10     6    11    2
    11    11    12    1
    12    11    13    1
    13     2    14    2
