@<TRIPOS>MOLECULE
*****
 20 21 0 0 0
SMALL
GASTEIGER

@<TRIPOS>ATOM
      1 C           1.0255    2.6281   -4.7453 C.2     1  UNL1        0.0060
      2 C           0.5877    1.4033   -4.4640 C.2     1  UNL1        0.0060
      3 C           0.0336    1.4269   -3.1046 C.2     1  UNL1        0.2505
      4 C           0.7979    3.4682   -3.5634 C.2     1  UNL1        0.2505
      5 N           0.2959    2.6626   -2.5815 N.am    1  UNL1       -0.2019
      6 C          -0.1057    3.0956   -1.2902 C.ar    1  UNL1        0.0628
      7 C          -0.6519    4.3833   -1.1344 C.ar    1  UNL1       -0.0384
      8 C           0.0217    2.2934   -0.1379 C.ar    1  UNL1        0.0628
      9 C          -0.4403    2.7502    1.1049 C.ar    1  UNL1       -0.0416
     10 C          -1.0135    4.0137    1.2256 C.ar    1  UNL1       -0.0603
     11 C          -1.1080    4.8345    0.1081 C.ar    1  UNL1       -0.0599
     12 H          -1.5405    5.8286    0.1970 H       1  UNL1        0.0618
     13 H          -0.7659    5.0513   -1.9861 H       1  UNL1        0.0637
     14 H          -0.3293    2.1304    1.9920 H       1  UNL1        0.0633
     15 H          -1.3649    4.3637    2.1931 H       1  UNL1        0.0618
     16 H           1.4647    2.9928   -5.6569 H       1  UNL1        0.0671
     17 H           0.5705    0.5325   -5.0951 H       1  UNL1        0.0671
     18 O          -0.6413    0.5061   -2.6770 O.2     1  UNL1       -0.2698
     19 O           1.0607    4.6588   -3.5609 O.2     1  UNL1       -0.2698
     20 CL          0.9159    0.8086   -0.1123 Cl      1  UNL1       -0.0816
@<TRIPOS>BOND
     1     1     2    2
     2     2     3    1
     3     1     4    1
     4     4     5   am
     5     5     3   am
     6     5     6    1
     7     6     7   ar
     8     6     8   ar
     9     8     9   ar
    10     9    10   ar
    11    10    11   ar
    12    11     7   ar
    13    11    12    1
    14     7    13    1
    15     9    14    1
    16    10    15    1
    17     1    16    1
    18     2    17    1
    19     3    18    2
    20     4    19    2
    21     8    20    1
