@<TRIPOS>MOLECULE
*****
 42 44 0 0 0
SMALL
GASTEIGER

@<TRIPOS>ATOM
      1 C          -0.4755    2.0670    0.7919 C.3     1  UNL1       -0.0335
      2 C           0.7231    1.1768    0.6662 C.2     1  UNL1        0.0265
      3 H          -1.2257    1.8050    0.0382 H       1  UNL1        0.0280
      4 H          -0.2177    3.1216    0.6466 H       1  UNL1        0.0280
      5 H          -0.9280    1.9695    1.7841 H       1  UNL1        0.0280
      6 C           1.9610    1.6555    0.4535 C.2     1  UNL1       -0.0890
      7 H           2.1432    2.7212    0.3576 H       1  UNL1        0.0540
      8 H           2.8280    1.0060    0.3764 H       1  UNL1        0.0540
      9 C           0.4472   -0.2836    0.8098 C.2     1  UNL1        0.3348
     10 O          -0.5888   -0.7160    1.2888 O.2     1  UNL1       -0.2453
     11 O           1.4678   -1.0126    0.3011 O.3     1  UNL1       -0.4548
     12 C           1.4169   -2.4557    0.2902 C.3     1  UNL1        0.1151
     13 C           0.2272   -3.0058   -0.5235 C.3     1  UNL1       -0.0099
     14 C           2.7220   -2.9005   -0.4131 C.3     1  UNL1       -0.0073
     15 C           0.2927   -4.5394   -0.5858 C.3     1  UNL1       -0.0364
     16 H           0.2306   -2.5765   -1.5336 H       1  UNL1        0.0306
     17 H          -0.7287   -2.7079   -0.0793 H       1  UNL1        0.0306
     18 C           2.8168   -4.4374   -0.4997 C.3     1  UNL1       -0.0277
     19 H           3.5886   -2.4911    0.1247 H       1  UNL1        0.0309
     20 H           2.7691   -2.4551   -1.4167 H       1  UNL1        0.0309
     21 C           1.4146   -3.0492    1.7140 C.3     1  UNL1       -0.0073
     22 C           0.2684   -5.1103    0.8427 C.3     1  UNL1       -0.0445
     23 C           1.4773   -4.5933    1.6575 C.3     1  UNL1       -0.0277
     24 H           0.2827   -6.2071    0.7995 H       1  UNL1        0.0273
     25 H          -0.6703   -4.8275    1.3365 H       1  UNL1        0.0273
     26 H           0.5171   -2.7358    2.2606 H       1  UNL1        0.0309
     27 H           2.2607   -2.6454    2.2861 H       1  UNL1        0.0309
     28 C           2.7779   -5.0129    0.9339 C.3     1  UNL1       -0.0419
     29 H           2.8497   -6.1084    0.8985 H       1  UNL1        0.0276
     30 H           3.6505   -4.6621    1.5014 H       1  UNL1        0.0276
     31 C           1.5941   -4.9647   -1.2817 C.3     1  UNL1       -0.0445
     32 H           1.6328   -6.0591   -1.3559 H       1  UNL1        0.0273
     33 H           1.6048   -4.5791   -2.3094 H       1  UNL1        0.0273
     34 H          -0.5664   -4.9211   -1.1489 H       1  UNL1        0.0302
     35 C           1.4509   -5.1766    3.0735 C.3     1  UNL1       -0.0594
     36 H           0.5335   -4.8933    3.6010 H       1  UNL1        0.0235
     37 H           2.3007   -4.8176    3.6645 H       1  UNL1        0.0235
     38 H           1.4985   -6.2709    3.0510 H       1  UNL1        0.0235
     39 C           4.1128   -4.8500   -1.2034 C.3     1  UNL1       -0.0594
     40 H           4.9913   -4.4826   -0.6616 H       1  UNL1        0.0235
     41 H           4.1555   -4.4461   -2.2210 H       1  UNL1        0.0235
     42 H           4.1948   -5.9402   -1.2733 H       1  UNL1        0.0235
@<TRIPOS>BOND
     1     1     2    1
     2     1     3    1
     3     1     4    1
     4     1     5    1
     5     2     6    2
     6     6     7    1
     7     6     8    1
     8     2     9    1
     9     9    10    2
    10     9    11    1
    11    11    12    1
    12    12    13    1
    13    12    14    1
    14    13    15    1
    15    13    16    1
    16    13    17    1
    17    14    18    1
    18    14    19    1
    19    14    20    1
    20    12    21    1
    21    15    22    1
    22    22    23    1
    23    22    24    1
    24    22    25    1
    25    23    21    1
    26    21    26    1
    27    21    27    1
    28    23    28    1
    29    28    18    1
    30    28    29    1
    31    28    30    1
    32    18    31    1
    33    31    15    1
    34    31    32    1
    35    31    33    1
    36    15    34    1
    37    23    35    1
    38    35    36    1
    39    35    37    1
    40    35    38    1
    41    18    39    1
    42    39    40    1
    43    39    41    1
    44    39    42    1
