@<TRIPOS>MOLECULE
*****
 10 9 0 0 0
SMALL
GASTEIGER

@<TRIPOS>ATOM
      1 C          -0.3951    1.6912    0.6948 C.3     1  UNL1       -0.0304
      2 C           0.8274    0.8216    0.6802 C.2     1  UNL1        0.0192
      3 H          -1.0866    1.3933   -0.1006 H       1  UNL1        0.0284
      4 H          -0.1502    2.7480    0.5428 H       1  UNL1        0.0284
      5 H          -0.9143    1.6044    1.6553 H       1  UNL1        0.0284
      6 C           2.0614    1.3310    0.5265 C.2     1  UNL1       -0.0856
      7 H           2.2253    2.3978    0.4074 H       1  UNL1        0.0544
      8 H           2.9438    0.6956    0.5161 H       1  UNL1        0.0544
      9 C           0.6544   -0.5889    0.8337 C.1     1  UNL1        0.0939
     10 N           0.5108   -1.7331    0.9580 N.1     1  UNL1       -0.1912
@<TRIPOS>BOND
     1     1     2    1
     2     1     3    1
     3     1     4    1
     4     1     5    1
     5     2     6    2
     6     6     7    1
     7     6     8    1
     8     2     9    1
     9    10     9    3
