@<TRIPOS>MOLECULE
*****
 15 14 0 0 0
SMALL
GASTEIGER

@<TRIPOS>ATOM
      1 C          -0.4179    2.7550    0.3043 C.3     1  UNL1       -0.0335
      2 C           0.8355    1.9498    0.1347 C.2     1  UNL1        0.0264
      3 H          -1.0881    2.6056   -0.5488 H       1  UNL1        0.0280
      4 H          -0.2084    3.8277    0.3756 H       1  UNL1        0.0280
      5 H          -0.9440    2.4598    1.2182 H       1  UNL1        0.0280
      6 C           2.0529    2.5175    0.0859 C.2     1  UNL1       -0.0890
      7 H           2.1751    3.5931    0.1674 H       1  UNL1        0.0540
      8 H           2.9617    1.9356   -0.0345 H       1  UNL1        0.0540
      9 C           0.6292    0.4751    0.0278 C.2     1  UNL1        0.3341
     10 O          -0.4711   -0.0514    0.1139 O.2     1  UNL1       -0.2454
     11 O           1.8004   -0.1787   -0.1787 O.3     1  UNL1       -0.4647
     12 C           1.6615   -1.5947   -0.2951 C.3     1  UNL1        0.0820
     13 H           2.6484   -2.0155   -0.5067 H       1  UNL1        0.0661
     14 H           0.9925   -1.8515   -1.1227 H       1  UNL1        0.0661
     15 H           1.2974   -2.0202    0.6451 H       1  UNL1        0.0661
@<TRIPOS>BOND
     1     1     2    1
     2     1     3    1
     3     1     4    1
     4     1     5    1
     5     2     6    2
     6     6     7    1
     7     6     8    1
     8     2     9    1
     9     9    10    2
    10     9    11    1
    11    11    12    1
    12    12    13    1
    13    12    14    1
    14    12    15    1
