@<TRIPOS>MOLECULE
*****
 22 22 0 0 0
SMALL
GASTEIGER

@<TRIPOS>ATOM
      1 C          -0.3952    1.8913    0.8112 C.3     1  UNL1       -0.0335
      2 C           0.7849    0.9815    0.6422 C.2     1  UNL1        0.0269
      3 H          -1.1852    1.6285    0.0997 H       1  UNL1        0.0280
      4 H          -0.1311    2.9401    0.6382 H       1  UNL1        0.0280
      5 H          -0.7992    1.8157    1.8261 H       1  UNL1        0.0280
      6 C           2.0093    1.4444    0.3358 C.2     1  UNL1       -0.0890
      7 H           2.1872    2.5061    0.1928 H       1  UNL1        0.0540
      8 H           2.8714    0.7940    0.2249 H       1  UNL1        0.0540
      9 C           0.4972   -0.4712    0.8589 C.2     1  UNL1        0.3396
     10 O          -0.5595   -0.8705    1.3265 O.2     1  UNL1       -0.2449
     11 O           1.5756   -1.2433    0.4435 O.3     1  UNL1       -0.4226
     12 C           1.6270   -2.6559    0.4902 C.ar    1  UNL1        0.1320
     13 C           0.5083   -3.4821    0.5544 C.ar    1  UNL1       -0.0192
     14 C           2.9104   -3.2029    0.4158 C.ar    1  UNL1       -0.0192
     15 C           3.0765   -4.5875    0.4278 C.ar    1  UNL1       -0.0583
     16 C           1.9608   -5.4202    0.5091 C.ar    1  UNL1       -0.0615
     17 C           0.6802   -4.8684    0.5710 C.ar    1  UNL1       -0.0583
     18 H          -0.4995   -3.0820    0.5871 H       1  UNL1        0.0654
     19 H           3.7785   -2.5536    0.3484 H       1  UNL1        0.0654
     20 H           4.0733   -5.0168    0.3725 H       1  UNL1        0.0619
     21 H           2.0875   -6.4998    0.5204 H       1  UNL1        0.0618
     22 H          -0.1890   -5.5189    0.6294 H       1  UNL1        0.0619
@<TRIPOS>BOND
     1     1     2    1
     2     1     3    1
     3     1     4    1
     4     1     5    1
     5     2     6    2
     6     6     7    1
     7     6     8    1
     8     2     9    1
     9     9    10    2
    10     9    11    1
    11    11    12    1
    12    12    13   ar
    13    12    14   ar
    14    14    15   ar
    15    15    16   ar
    16    16    17   ar
    17    17    13   ar
    18    13    18    1
    19    14    19    1
    20    15    20    1
    21    16    21    1
    22    17    22    1
