@<TRIPOS>MOLECULE
*****
 19 18 0 0 0
SMALL
GASTEIGER

@<TRIPOS>ATOM
      1 C          -0.4246    2.8720    0.3065 C.3     1  UNL1       -0.0335
      2 C           0.7553    1.9644    0.1305 C.2     1  UNL1        0.0264
      3 H          -1.0977    2.7970   -0.5542 H       1  UNL1        0.0280
      4 H          -0.1235    3.9210    0.3992 H       1  UNL1        0.0280
      5 H          -0.9825    2.6069    1.2107 H       1  UNL1        0.0280
      6 C           2.0194    2.4214    0.1182 C.2     1  UNL1       -0.0890
      7 H           2.2367    3.4786    0.2337 H       1  UNL1        0.0540
      8 H           2.8741    1.7612    0.0020 H       1  UNL1        0.0540
      9 C           0.4236    0.5169   -0.0188 C.2     1  UNL1        0.3344
     10 O          -0.7134    0.0793    0.0868 O.2     1  UNL1       -0.2453
     11 O           1.5254   -0.2183   -0.3056 O.3     1  UNL1       -0.4591
     12 C           1.2775   -1.6278   -0.4322 C.3     1  UNL1        0.1158
     13 C           2.5775   -2.3222   -0.8245 C.3     1  UNL1        0.0784
     14 H           0.5281   -1.7934   -1.2143 H       1  UNL1        0.0721
     15 H           0.9170   -2.0131    0.5283 H       1  UNL1        0.0721
     16 O           3.4857   -2.3269    0.2751 O.3     1  UNL1       -0.3917
     17 H           3.0584   -1.8016   -1.6586 H       1  UNL1        0.0591
     18 H           2.3824   -3.3616   -1.1042 H       1  UNL1        0.0591
     19 H           4.3184   -2.7138   -0.0446 H       1  UNL1        0.2095
@<TRIPOS>BOND
     1     1     2    1
     2     1     3    1
     3     1     4    1
     4     1     5    1
     5     2     6    2
     6     6     7    1
     7     6     8    1
     8     2     9    1
     9     9    10    2
    10     9    11    1
    11    11    12    1
    12    12    13    1
    13    12    14    1
    14    12    15    1
    15    13    16    1
    16    13    17    1
    17    13    18    1
    18    16    19    1
