@<TRIPOS>MOLECULE
*****
 18 17 0 0 0
SMALL
GASTEIGER

@<TRIPOS>ATOM
      1 O           1.0734    0.6017   -3.3853 O.3     1  UNL1       -0.4602
      2 C           1.1511   -0.4355   -2.5134 C.2     1  UNL1        0.3343
      3 C           1.5125   -1.7072   -3.2054 C.2     1  UNL1        0.0264
      4 C           1.8284   -1.7584   -4.5110 C.2     1  UNL1       -0.0890
      5 H           1.8411   -0.8759   -5.1430 H       1  UNL1        0.0540
      6 H           2.0896   -2.6979   -4.9886 H       1  UNL1        0.0540
      7 C           1.5027   -2.9279   -2.3346 C.3     1  UNL1       -0.0335
      8 H           2.2260   -2.8246   -1.5190 H       1  UNL1        0.0280
      9 H           1.7629   -3.8322   -2.8951 H       1  UNL1        0.0280
     10 H           0.5083   -3.0825   -1.9027 H       1  UNL1        0.0280
     11 O           0.9430   -0.3652   -1.3113 O.2     1  UNL1       -0.2453
     12 C           0.7152    1.8535   -2.7807 C.3     1  UNL1        0.1061
     13 C           0.5822    2.8869   -3.8812 C.3     1  UNL1        0.0568
     14 H           1.4975    2.1473   -2.0704 H       1  UNL1        0.0709
     15 H          -0.2351    1.7453   -2.2436 H       1  UNL1        0.0709
     16 CL          0.2039    4.4532   -3.5722 Cl      1  UNL1       -0.1219
     17 H          -0.1757    2.5221   -4.5427 H       1  UNL1        0.0463
     18 H           1.5898    2.9676   -4.2322 H       1  UNL1        0.0463
@<TRIPOS>BOND
     1     1     2    1
     2     2     3    1
     3     3     4    2
     4     4     5    1
     5     4     6    1
     6     3     7    1
     7     7     8    1
     8     7     9    1
     9     7    10    1
    10     2    11    2
    11     1    12    1
    12    12    13    1
    13    12    14    1
    14    12    15    1
    15    13    16    1
    16    13    17    1
    17    13    18    1
