@<TRIPOS>MOLECULE
*****
 21 21 0 0 0
SMALL
GASTEIGER

@<TRIPOS>ATOM
      1 C           1.3570    2.1961    0.3890 C.ar    1  UNL1       -0.0546
      2 C           2.2238    3.2503    0.6901 C.ar    1  UNL1       -0.0612
      3 C           1.7483    4.5585    0.7119 C.ar    1  UNL1       -0.0617
      4 C           0.4089    4.8125    0.4274 C.ar    1  UNL1       -0.0612
      5 C          -0.4575    3.7575    0.1238 C.ar    1  UNL1       -0.0546
      6 C           0.0024    2.4336    0.1126 C.ar    1  UNL1       -0.0242
      7 H           1.7525    1.1826    0.3780 H       1  UNL1        0.0623
      8 H           3.2696    3.0475    0.9055 H       1  UNL1        0.0618
      9 H           2.4213    5.3793    0.9449 H       1  UNL1        0.0618
     10 H           0.0364    5.8336    0.4354 H       1  UNL1        0.0618
     11 H          -1.4913    3.9932   -0.1134 H       1  UNL1        0.0623
     12 C          -0.8558    1.2861   -0.2265 C.2     1  UNL1       -0.0404
     13 C          -2.1921    1.2521   -0.1177 C.2     1  UNL1        0.0646
     14 H          -0.3330    0.3974   -0.5764 H       1  UNL1        0.0632
     15 C          -2.9236    0.0834   -0.4609 C.1     1  UNL1        0.3042
     16 H          -2.7625    2.0991    0.2457 H       1  UNL1        0.0775
     17 N          -3.4941   -0.8356   -0.7262 N.1     1  UNL1       -0.0774
     18 C          -4.2201   -2.0145   -1.0629 C.3     1  UNL1        0.2570
     19 H          -4.2705   -2.1201   -2.1497 H       1  UNL1        0.1196
     20 H          -5.2344   -1.9515   -0.6603 H       1  UNL1        0.1196
     21 H          -3.7196   -2.8894   -0.6399 H       1  UNL1        0.1196
@<TRIPOS>BOND
     1     1     2   ar
     2     2     3   ar
     3     3     4   ar
     4     4     5   ar
     5     5     6   ar
     6     6     1   ar
     7     1     7    1
     8     2     8    1
     9     3     9    1
    10     4    10    1
    11     5    11    1
    12     6    12    1
    13    12    13    2
    14    12    14    1
    15    13    15    1
    16    13    16    1
    17    15    17    3
    18    17    18    1
    19    18    19    1
    20    18    20    1
    21    18    21    1
