@<TRIPOS>MOLECULE
*****
 20 21 0 0 0
SMALL
GASTEIGER

@<TRIPOS>ATOM
      1 C          -1.6544    1.9309   -0.0000 C.ar    1  UNL1       -0.0610
      2 C          -0.2662    1.6837   -0.0000 C.ar    1  UNL1       -0.0610
      3 C          -2.1486    3.2390   -0.0000 C.ar    1  UNL1       -0.0489
      4 C          -1.2225    4.2648   -0.0000 C.ar    1  UNL1        0.0497
      5 C           0.1359    4.0241   -0.0000 C.ar    1  UNL1        0.0497
      6 C           0.6494    2.7408   -0.0000 C.ar    1  UNL1       -0.0489
      7 H           1.7206    2.5652   -0.0000 H       1  UNL1        0.0625
      8 H           0.0955    0.6568   -0.0000 H       1  UNL1        0.0618
      9 H          -2.3482    1.0919   -0.0000 H       1  UNL1        0.0618
     10 H          -3.2144    3.4443   -0.0000 H       1  UNL1        0.0625
     11 C          -1.4150    5.7112   -0.0000 C.2     1  UNL1        0.2577
     12 C           0.8211    5.3155   -0.0000 C.2     1  UNL1        0.2577
     13 N          -0.1598    6.2863   -0.0000 N.am    1  UNL1       -0.2098
     14 O           2.0367    5.3965   -0.0000 O.2     1  UNL1       -0.2692
     15 O          -2.5153    6.2351   -0.0000 O.2     1  UNL1       -0.2692
     16 C           0.0152    7.6542   -0.0000 C.2     1  UNL1        0.0006
     17 C           1.1819    8.3074   -0.0000 C.2     1  UNL1       -0.0841
     18 H          -0.9094    8.2311   -0.0000 H       1  UNL1        0.0783
     19 H           2.1432    7.8045   -0.0000 H       1  UNL1        0.0547
     20 H           1.2003    9.3928   -0.0000 H       1  UNL1        0.0547
@<TRIPOS>BOND
     1     1     2   ar
     2     1     3   ar
     3     3     4   ar
     4     4     5   ar
     5     5     6   ar
     6     6     2   ar
     7     6     7    1
     8     2     8    1
     9     1     9    1
    10     3    10    1
    11     4    11    1
    12     5    12    1
    13    12    13   am
    14    13    11   am
    15    12    14    2
    16    11    15    2
    17    13    16    1
    18    16    17    2
    19    16    18    1
    20    17    19    1
    21    17    20    1
