@<TRIPOS>MOLECULE
*****
 18 18 0 0 0
SMALL
GASTEIGER

@<TRIPOS>ATOM
      1 N          -1.5266    2.2377   -0.0502 N.ar    1  UNL1       -0.2525
      2 C          -0.3483    1.5719   -0.0076 C.ar    1  UNL1        0.0389
      3 C          -0.2709    0.1836   -0.0163 C.ar    1  UNL1       -0.0406
      4 C          -1.4502   -0.5499   -0.0720 C.ar    1  UNL1       -0.0581
      5 C          -2.6685    0.1210   -0.1167 C.ar    1  UNL1       -0.0363
      6 C          -2.6685    1.5114   -0.1040 C.ar    1  UNL1        0.0636
      7 H          -3.5955   -0.4403   -0.1602 H       1  UNL1        0.0639
      8 H           0.6893   -0.3206    0.0196 H       1  UNL1        0.0635
      9 H          -1.4215   -1.6356   -0.0803 H       1  UNL1        0.0619
     10 C           0.9026    2.3955    0.0533 C.3     1  UNL1       -0.0223
     11 H           0.6668    3.4645    0.0371 H       1  UNL1        0.0292
     12 H           1.5431    2.1752   -0.8063 H       1  UNL1        0.0292
     13 H           1.4514    2.1813    0.9756 H       1  UNL1        0.0292
     14 C          -3.9408    2.2478   -0.1498 C.2     1  UNL1       -0.0434
     15 C          -4.0427    3.5843   -0.1399 C.2     1  UNL1       -0.0967
     16 H          -4.8459    1.6503   -0.1941 H       1  UNL1        0.0633
     17 H          -3.1634    4.2210   -0.0961 H       1  UNL1        0.0535
     18 H          -5.0117    4.0694   -0.1754 H       1  UNL1        0.0535
@<TRIPOS>BOND
     1     1     2   ar
     2     2     3   ar
     3     3     4   ar
     4     4     5   ar
     5     5     6   ar
     6     5     7    1
     7     3     8    1
     8     4     9    1
     9     2    10    1
    10    10    11    1
    11    10    12    1
    12    10    13    1
    13     6    14    1
    14    14    15    2
    15    14    16    1
    16    15    17    1
    17    15    18    1
    18     6     1   ar
