@<TRIPOS>MOLECULE
*****
 18 18 0 0 0
SMALL
GASTEIGER

@<TRIPOS>ATOM
      1 C           0.3555    2.0922    0.3382 C.2     1  UNL1        0.0582
      2 C           0.6985    0.7563    0.9143 C.2     1  UNL1       -0.0368
      3 C          -0.1528   -0.2795    0.9293 C.2     1  UNL1       -0.0600
      4 C          -1.4992   -0.2611    0.4126 C.2     1  UNL1       -0.0639
      5 C          -2.2995    0.8110    0.5007 C.2     1  UNL1       -0.0629
      6 C          -1.8819    2.1042    1.1283 C.3     1  UNL1        0.0588
      7 C           1.4710    2.8050   -0.3601 C.2     1  UNL1       -0.0438
      8 C           2.6446    2.2835   -0.7392 C.2     1  UNL1       -0.0967
      9 H           1.2468    3.8430   -0.5956 H       1  UNL1        0.0633
     10 H           2.9173    1.2476   -0.5768 H       1  UNL1        0.0535
     11 H           3.3678    2.9039   -1.2604 H       1  UNL1        0.0535
     12 H           1.6976    0.6391    1.3181 H       1  UNL1        0.0639
     13 H           0.1827   -1.2315    1.3344 H       1  UNL1        0.0618
     14 H          -1.8702   -1.1799   -0.0339 H       1  UNL1        0.0615
     15 H          -3.3097    0.7587    0.1062 H       1  UNL1        0.0590
     16 N          -0.7704    2.7179    0.4109 N.2     1  UNL1       -0.2798
     17 H          -1.6517    1.9774    2.1934 H       1  UNL1        0.0552
     18 H          -2.7308    2.7966    1.0879 H       1  UNL1        0.0552
@<TRIPOS>BOND
     1     1     2    1
     2     2     3    2
     3     3     4    1
     4     4     5    2
     5     5     6    1
     6     1     7    1
     7     7     8    2
     8     7     9    1
     9     8    10    1
    10     8    11    1
    11     2    12    1
    12     3    13    1
    13     4    14    1
    14     5    15    1
    15    16     1    2
    16    16     6    1
    17     6    17    1
    18     6    18    1
