@<TRIPOS>MOLECULE
*****
 23 23 0 0 0
SMALL
GASTEIGER

@<TRIPOS>ATOM
      1 C          -2.0957    2.5616   -0.2873 C.2     1  UNL1       -0.0999
      2 C          -1.0635    2.2161   -1.0700 C.2     1  UNL1       -0.0584
      3 H          -1.9498    3.1473    0.6162 H       1  UNL1        0.0533
      4 H          -3.1062    2.2428   -0.5215 H       1  UNL1        0.0533
      5 C           0.3947    2.5778   -0.8717 C.3     1  UNL1        0.1012
      6 H          -1.2654    1.6065   -1.9490 H       1  UNL1        0.0595
      7 C           1.2607    1.4100   -0.4170 C.ar    1  UNL1       -0.0151
      8 C           0.7644    0.3640    0.3788 C.ar    1  UNL1       -0.0558
      9 C           2.6248    1.3918   -0.7583 C.ar    1  UNL1       -0.0558
     10 C           1.5925   -0.6866    0.7820 C.ar    1  UNL1       -0.0614
     11 C           2.9356   -0.6980    0.4149 C.ar    1  UNL1       -0.0617
     12 C           3.4540    0.3445   -0.3489 C.ar    1  UNL1       -0.0614
     13 H           3.0521    2.2062   -1.3394 H       1  UNL1        0.0621
     14 H          -0.2747    0.3584    0.6994 H       1  UNL1        0.0621
     15 H           1.1876   -1.4910    1.3904 H       1  UNL1        0.0618
     16 H           3.5797   -1.5126    0.7346 H       1  UNL1        0.0618
     17 H           4.5064    0.3474   -0.6201 H       1  UNL1        0.0618
     18 O           0.5697    3.6285    0.0827 O.3     1  UNL1       -0.3711
     19 H           0.7827    2.9058   -1.8464 H       1  UNL1        0.0691
     20 C           0.2728    4.9223   -0.4280 C.3     1  UNL1        0.0376
     21 H           1.0535    5.6107   -0.0930 H       1  UNL1        0.0524
     22 H          -0.6796    5.2619   -0.0113 H       1  UNL1        0.0524
     23 H           0.2235    4.9569   -1.5211 H       1  UNL1        0.0524
@<TRIPOS>BOND
     1     1     2    2
     2     1     3    1
     3     1     4    1
     4     2     5    1
     5     2     6    1
     6     5     7    1
     7     7     8   ar
     8     7     9   ar
     9     8    10   ar
    10    10    11   ar
    11    11    12   ar
    12    12     9   ar
    13     9    13    1
    14     8    14    1
    15    10    15    1
    16    11    16    1
    17    12    17    1
    18     5    18    1
    19     5    19    1
    20    18    20    1
    21    20    21    1
    22    20    22    1
    23    20    23    1
