@<TRIPOS>MOLECULE
*****
 24 24 0 0 0
SMALL
GASTEIGER

@<TRIPOS>ATOM
      1 C          -2.4715   -0.1559    0.2727 C.ar    1  UNL1       -0.0188
      2 C          -1.6293    0.9403    0.0524 C.ar    1  UNL1       -0.0511
      3 C          -0.2485    0.7647   -0.0679 C.ar    1  UNL1       -0.0254
      4 C           0.2508   -0.5372    0.0399 C.ar    1  UNL1       -0.0511
      5 C          -0.6003   -1.6362    0.2615 C.ar    1  UNL1       -0.0188
      6 C          -1.9701   -1.4608    0.3807 C.ar    1  UNL1        0.1280
      7 H          -3.5430    0.0136    0.3620 H       1  UNL1        0.0654
      8 H          -2.0736    1.9301   -0.0229 H       1  UNL1        0.0625
      9 H           1.3160   -0.7339   -0.0454 H       1  UNL1        0.0625
     10 H          -0.1202   -2.5969    0.3296 H       1  UNL1        0.0654
     11 C           0.5948    1.9498   -0.2992 C.2     1  UNL1       -0.0617
     12 C           1.9271    1.9693   -0.4384 C.2     1  UNL1       -0.0981
     13 H           0.0667    2.9000   -0.3611 H       1  UNL1        0.0618
     14 H           2.5460    1.0814   -0.3935 H       1  UNL1        0.0535
     15 H           2.4415    2.9111   -0.6062 H       1  UNL1        0.0535
     16 O          -2.9581   -2.3799    0.5944 O.3     1  UNL1       -0.4612
     17 C          -2.9053   -3.7433    0.7555 C.2     1  UNL1        0.0955
     18 C          -1.8612   -4.5874    0.7514 C.2     1  UNL1       -0.0607
     19 H          -0.8302   -4.3217    0.6131 H       1  UNL1        0.0568
     20 H          -2.0304   -5.6517    0.8988 H       1  UNL1        0.0568
     21 C          -4.2802   -4.3254    0.9678 C.3     1  UNL1       -0.0069
     22 H          -5.0493   -3.5454    0.9514 H       1  UNL1        0.0307
     23 H          -4.3420   -4.8284    1.9386 H       1  UNL1        0.0307
     24 H          -4.5228   -5.0435    0.1773 H       1  UNL1        0.0307
@<TRIPOS>BOND
     1     1     2   ar
     2     2     3   ar
     3     3     4   ar
     4     4     5   ar
     5     5     6   ar
     6     6     1   ar
     7     1     7    1
     8     2     8    1
     9     4     9    1
    10     5    10    1
    11     3    11    1
    12    11    12    2
    13    11    13    1
    14    12    14    1
    15    12    15    1
    16     6    16    1
    17    16    17    1
    18    17    18    2
    19    18    19    1
    20    18    20    1
    21    17    21    1
    22    21    22    1
    23    21    23    1
    24    21    24    1
