@<TRIPOS>MOLECULE
*****
 42 41 0 0 0
SMALL
GASTEIGER

@<TRIPOS>ATOM
      1 C          -0.1478    2.3906    0.4327 C.3     1  UNL1        0.1821
      2 C          -1.1939    1.3616   -0.0130 C.3     1  UNL1        0.0847
      3 C          -0.6817   -0.0528    0.0838 C.2     1  UNL1        0.3107
      4 H          -1.5049    1.5067   -1.0517 H       1  UNL1        0.0412
      5 H          -2.0695    1.4361    0.6438 H       1  UNL1        0.0412
      6 C           1.0178    2.4608   -0.5804 C.2     1  UNL1        0.3405
      7 C          -0.7009    3.8165    0.6169 C.3     1  UNL1        0.0847
      8 C          -1.7867    4.2267   -0.3461 C.2     1  UNL1        0.3107
      9 H           0.1019    4.5617    0.5532 H       1  UNL1        0.0412
     10 H          -1.1179    3.8989    1.6305 H       1  UNL1        0.0412
     11 O          -2.6135    5.1265    0.2538 O.3     1  UNL1       -0.4604
     12 O          -1.9075    3.8322   -1.4954 O.2     1  UNL1       -0.2507
     13 O           0.4974   -0.3695    0.1598 O.2     1  UNL1       -0.2507
     14 O          -1.7306   -0.9178    0.0617 O.3     1  UNL1       -0.4604
     15 O           0.9042    2.7385   -1.7654 O.2     1  UNL1       -0.2475
     16 O           0.3040    2.0125    1.7531 O.3     1  UNL1       -0.3765
     17 H           1.0334    1.3694    1.6194 H       1  UNL1        0.2109
     18 O           2.1989    2.1828    0.0427 O.3     1  UNL1       -0.4585
     19 C          -3.7095    5.5449   -0.5644 C.3     1  UNL1        0.1105
     20 C          -4.5183    6.5123    0.2433 C.2     1  UNL1       -0.0541
     21 H          -4.3086    4.6741   -0.8562 H       1  UNL1        0.0742
     22 H          -3.3338    6.0499   -1.4614 H       1  UNL1        0.0742
     23 C          -5.8080    6.3469    0.5656 C.2     1  UNL1       -0.0995
     24 H          -4.0005    7.4072    0.5804 H       1  UNL1        0.0600
     25 H          -6.3684    5.4700    0.2562 H       1  UNL1        0.0533
     26 H          -6.3312    7.0923    1.1571 H       1  UNL1        0.0533
     27 C           3.3408    2.2449   -0.8143 C.3     1  UNL1        0.1105
     28 C           4.5224    1.8152   -0.0007 C.2     1  UNL1       -0.0541
     29 H           3.4648    3.2682   -1.1872 H       1  UNL1        0.0743
     30 H           3.2182    1.5579   -1.6593 H       1  UNL1        0.0743
     31 C           5.5925    2.5787    0.2574 C.2     1  UNL1       -0.0995
     32 H           4.4872    0.8032    0.3967 H       1  UNL1        0.0600
     33 H           5.6740    3.5958   -0.1135 H       1  UNL1        0.0533
     34 H           6.4132    2.1972    0.8576 H       1  UNL1        0.0533
     35 C          -1.3635   -2.2960    0.1579 C.3     1  UNL1        0.1105
     36 C          -2.6305   -3.0739    0.3393 C.2     1  UNL1       -0.0541
     37 H          -0.7185   -2.4589    1.0290 H       1  UNL1        0.0742
     38 H          -0.8342   -2.5962   -0.7535 H       1  UNL1        0.0742
     39 C          -3.0586   -4.0428   -0.4805 C.2     1  UNL1       -0.0995
     40 H          -3.2318   -2.8156    1.2082 H       1  UNL1        0.0600
     41 H          -2.4986   -4.3359   -1.3631 H       1  UNL1        0.0533
     42 H          -3.9924   -4.5614   -0.2844 H       1  UNL1        0.0533
@<TRIPOS>BOND
     1     1     2    1
     2     2     3    1
     3     2     4    1
     4     2     5    1
     5     1     6    1
     6     1     7    1
     7     7     8    1
     8     7     9    1
     9     7    10    1
    10     8    11    1
    11     8    12    2
    12     3    13    2
    13     3    14    1
    14     6    15    2
    15     1    16    1
    16    16    17    1
    17     6    18    1
    18    11    19    1
    19    19    20    1
    20    19    21    1
    21    19    22    1
    22    20    23    2
    23    20    24    1
    24    23    25    1
    25    23    26    1
    26    18    27    1
    27    27    28    1
    28    27    29    1
    29    27    30    1
    30    28    31    2
    31    28    32    1
    32    31    33    1
    33    31    34    1
    34    14    35    1
    35    35    36    1
    36    35    37    1
    37    35    38    1
    38    36    39    2
    39    36    40    1
    40    39    41    1
    41    39    42    1
