@<TRIPOS>MOLECULE
*****
 19 18 0 0 0
SMALL
GASTEIGER

@<TRIPOS>ATOM
      1 C          -5.1593    3.9065   -0.0660 C.2     1  UNL1       -0.0925
      2 C          -3.8910    3.5319    0.1285 C.2     1  UNL1       -0.0357
      3 H          -5.4545    4.9429    0.0583 H       1  UNL1        0.0540
      4 H          -5.9311    3.1990   -0.3537 H       1  UNL1        0.0540
      5 S          -3.4083    1.8837   -0.0644 S.3     1  UNL1       -0.1336
      6 H          -3.1500    4.2728    0.4149 H       1  UNL1        0.0684
      7 C          -1.6011    2.0527    0.0631 C.3     1  UNL1       -0.0023
      8 C          -0.9377    0.6843   -0.0784 C.3     1  UNL1       -0.0439
      9 H          -1.3486    2.4961    1.0325 H       1  UNL1        0.0379
     10 H          -1.2500    2.7274   -0.7252 H       1  UNL1        0.0379
     11 C           0.5860    0.8039   -0.0095 C.3     1  UNL1       -0.0552
     12 H          -1.2176    0.2256   -1.0353 H       1  UNL1        0.0273
     13 H          -1.2836    0.0151    0.7195 H       1  UNL1        0.0273
     14 C           1.2566   -0.5558   -0.1244 C.3     1  UNL1       -0.0653
     15 H           0.8816    1.2719    0.9367 H       1  UNL1        0.0263
     16 H           0.9448    1.4513   -0.8182 H       1  UNL1        0.0263
     17 H           0.9488   -1.2148    0.6937 H       1  UNL1        0.0230
     18 H           2.3448   -0.4468   -0.0815 H       1  UNL1        0.0230
     19 H           1.0007   -1.0412   -1.0717 H       1  UNL1        0.0230
@<TRIPOS>BOND
     1     1     2    2
     2     1     3    1
     3     1     4    1
     4     2     5    1
     5     2     6    1
     6     5     7    1
     7     7     8    1
     8     7     9    1
     9     7    10    1
    10     8    11    1
    11     8    12    1
    12     8    13    1
    13    11    14    1
    14    11    15    1
    15    11    16    1
    16    14    17    1
    17    14    18    1
    18    14    19    1
