@<TRIPOS>MOLECULE
*****
 13 12 0 0 0
SMALL
GASTEIGER

@<TRIPOS>ATOM
      1 C         -17.6130    9.0749    1.0932 C.2     1  UNL1       -0.0925
      2 C         -16.3143    8.7598    1.0641 C.2     1  UNL1       -0.0357
      3 H         -17.9338   10.1051    0.9814 H       1  UNL1        0.0540
      4 H         -18.3853    8.3233    1.2257 H       1  UNL1        0.0540
      5 S         -15.7875    7.1240    1.2475 S.3     1  UNL1       -0.1339
      6 H         -15.5746    9.5438    0.9287 H       1  UNL1        0.0684
      7 C         -14.0393    7.2886    0.7776 C.3     1  UNL1       -0.0051
      8 C         -13.3272    5.9579    0.9414 C.3     1  UNL1       -0.0559
      9 H         -13.5586    8.0441    1.4075 H       1  UNL1        0.0377
     10 H         -13.9761    7.6181   -0.2646 H       1  UNL1        0.0377
     11 H         -13.3418    5.6210    1.9836 H       1  UNL1        0.0238
     12 H         -12.2787    6.0577    0.6414 H       1  UNL1        0.0238
     13 H         -13.7773    5.1791    0.3165 H       1  UNL1        0.0238
@<TRIPOS>BOND
     1     1     2    2
     2     1     3    1
     3     1     4    1
     4     2     5    1
     5     2     6    1
     6     5     7    1
     7     7     8    1
     8     7     9    1
     9     7    10    1
    10     8    11    1
    11     8    12    1
    12     8    13    1
