@<TRIPOS>MOLECULE
*****
 39 38 0 0 0
SMALL
GASTEIGER

@<TRIPOS>ATOM
      1 C          -6.6651    4.5994    0.0133 C.2     1  UNL1       -0.0635
      2 C          -5.5164    5.2742    0.0854 C.2     1  UNL1        0.0885
      3 H          -6.6776    3.5277   -0.1531 H       1  UNL1        0.0565
      4 H          -7.6155    5.1111    0.1202 H       1  UNL1        0.0565
      5 O          -4.2854    4.6315   -0.0472 O.3     1  UNL1       -0.4342
      6 H          -5.4694    6.3432    0.2516 H       1  UNL1        0.1024
      7 C          -3.1736    5.4379    0.0209 C.2     1  UNL1        0.3118
      8 O          -3.1661    6.6529    0.1722 O.2     1  UNL1       -0.2504
      9 C          -1.9395    4.5745   -0.1294 C.3     1  UNL1        0.0453
     10 C          -0.6595    5.3930    0.0266 C.3     1  UNL1       -0.0430
     11 H          -1.9657    4.1081   -1.1204 H       1  UNL1        0.0378
     12 H          -1.9723    3.7919    0.6368 H       1  UNL1        0.0378
     13 C           0.5927    4.5229   -0.0921 C.3     1  UNL1       -0.0526
     14 H          -0.6635    5.8990    1.0004 H       1  UNL1        0.0270
     15 H          -0.6336    6.1814   -0.7363 H       1  UNL1        0.0270
     16 C           1.8565    5.3715    0.0560 C.3     1  UNL1       -0.0530
     17 H           0.5999    4.0162   -1.0646 H       1  UNL1        0.0265
     18 H           0.5768    3.7447    0.6803 H       1  UNL1        0.0265
     19 C           3.1283    4.5287   -0.0504 C.3     1  UNL1       -0.0531
     20 H           1.8404    5.8859    1.0248 H       1  UNL1        0.0265
     21 H           1.8664    6.1472   -0.7197 H       1  UNL1        0.0265
     22 C           4.3728    5.4103    0.0707 C.3     1  UNL1       -0.0531
     23 H           3.1423    4.0006   -1.0114 H       1  UNL1        0.0265
     24 H           3.1349    3.7677    0.7391 H       1  UNL1        0.0265
     25 C           5.6617    4.5952   -0.0402 C.3     1  UNL1       -0.0531
     26 H           4.3559    5.9382    1.0322 H       1  UNL1        0.0265
     27 H           4.3553    6.1744   -0.7162 H       1  UNL1        0.0265
     28 C           6.8906    5.5028    0.0460 C.3     1  UNL1       -0.0533
     29 H           5.6728    4.0503   -0.9918 H       1  UNL1        0.0265
     30 H           5.6962    3.8484    0.7622 H       1  UNL1        0.0265
     31 C           8.1885    4.7053   -0.0718 C.3     1  UNL1       -0.0559
     32 H           6.8795    6.0466    0.9986 H       1  UNL1        0.0265
     33 H           6.8481    6.2527   -0.7534 H       1  UNL1        0.0265
     34 C           9.4052    5.6154   -0.0090 C.3     1  UNL1       -0.0653
     35 H           8.2021    4.1521   -1.0181 H       1  UNL1        0.0263
     36 H           8.2475    3.9678    0.7370 H       1  UNL1        0.0263
     37 H           9.3920    6.3442   -0.8259 H       1  UNL1        0.0230
     38 H          10.3242    5.0273   -0.0937 H       1  UNL1        0.0230
     39 H           9.4376    6.1626    0.9386 H       1  UNL1        0.0230
@<TRIPOS>BOND
     1     1     2    2
     2     1     3    1
     3     1     4    1
     4     2     5    1
     5     2     6    1
     6     5     7    1
     7     7     8    2
     8     7     9    1
     9     9    10    1
    10     9    11    1
    11     9    12    1
    12    10    13    1
    13    10    14    1
    14    10    15    1
    15    13    16    1
    16    13    17    1
    17    13    18    1
    18    16    19    1
    19    16    20    1
    20    16    21    1
    21    19    22    1
    22    19    23    1
    23    19    24    1
    24    22    25    1
    25    22    26    1
    26    22    27    1
    27    25    28    1
    28    25    29    1
    29    25    30    1
    30    28    31    1
    31    28    32    1
    32    28    33    1
    33    31    34    1
    34    31    35    1
    35    31    36    1
    36    34    37    1
    37    34    38    1
    38    34    39    1
