@<TRIPOS>MOLECULE
*****
 17 17 0 0 0
SMALL
GASTEIGER

@<TRIPOS>ATOM
      1 C          -2.9191   -0.5225   -0.0522 C.2     1  UNL1        0.0854
      2 C          -2.8256   -1.8500   -0.1451 C.2     1  UNL1       -0.0636
      3 H          -1.9008   -2.3640    0.0928 H       1  UNL1        0.0565
      4 H          -3.6764   -2.4474   -0.4574 H       1  UNL1        0.0565
      5 O          -4.0867    0.1286   -0.3478 O.3     1  UNL1       -0.4641
      6 H          -2.0859    0.0760    0.2761 H       1  UNL1        0.1023
      7 C          -4.1923    1.4985   -0.3007 C.ar    1  UNL1        0.1276
      8 C          -5.5050    1.9782   -0.3785 C.ar    1  UNL1       -0.0194
      9 C          -3.4012    3.7862   -0.2096 C.ar    1  UNL1       -0.0583
     10 C          -5.7664    3.3494   -0.3694 C.ar    1  UNL1       -0.0583
     11 C          -4.7122    4.2544   -0.2816 C.ar    1  UNL1       -0.0615
     12 H          -6.3313    1.2750   -0.4511 H       1  UNL1        0.0654
     13 H          -6.7902    3.7076   -0.4344 H       1  UNL1        0.0619
     14 H          -4.9106    5.3230   -0.2758 H       1  UNL1        0.0618
     15 C          -3.1389    2.4116   -0.2263 C.ar    1  UNL1       -0.0194
     16 H          -2.5774    4.4931   -0.1483 H       1  UNL1        0.0619
     17 H          -2.1028    2.0956   -0.1948 H       1  UNL1        0.0654
@<TRIPOS>BOND
     1     1     2    2
     2     2     3    1
     3     2     4    1
     4     1     5    1
     5     1     6    1
     6     5     7    1
     7     7     8   ar
     8     8    10   ar
     9    10    11   ar
    10    11     9   ar
    11     8    12    1
    12    10    13    1
    13    11    14    1
    14     9    15   ar
    15     9    16    1
    16     7    15   ar
    17    15    17    1
