@<TRIPOS>MOLECULE
*****
 17 17 0 0 0
SMALL
GASTEIGER

@<TRIPOS>ATOM
      1 C          -2.3992    2.1438   -0.1334 C.2     1  UNL1       -0.0921
      2 C          -1.0905    2.4170   -0.1093 C.2     1  UNL1       -0.0309
      3 H          -2.9873    2.3449   -1.0226 H       1  UNL1        0.0540
      4 H          -2.9159    1.7176    0.7212 H       1  UNL1        0.0540
      5 S          -0.1334    2.1040    1.2985 S.3     1  UNL1       -0.0978
      6 H          -0.6166    2.8431   -0.9899 H       1  UNL1        0.0688
      7 C           1.4375    2.7115    0.7144 C.ar    1  UNL1        0.0122
      8 C           2.3558    1.8356    0.1268 C.ar    1  UNL1       -0.0480
      9 C           3.5885    2.3099   -0.3267 C.ar    1  UNL1       -0.0607
     10 C           3.9097    3.6599   -0.1904 C.ar    1  UNL1       -0.0617
     11 C           3.0011    4.5364    0.4014 C.ar    1  UNL1       -0.0607
     12 C           1.7683    4.0632    0.8555 C.ar    1  UNL1       -0.0480
     13 H           2.1182    0.7800    0.0194 H       1  UNL1        0.0629
     14 H           4.2986    1.6250   -0.7829 H       1  UNL1        0.0618
     15 H           4.8704    4.0282   -0.5416 H       1  UNL1        0.0618
     16 H           3.2530    5.5878    0.5130 H       1  UNL1        0.0618
     17 H           1.0698    4.7548    1.3201 H       1  UNL1        0.0629
@<TRIPOS>BOND
     1     1     2    2
     2     1     3    1
     3     1     4    1
     4     2     5    1
     5     2     6    1
     6     5     7    1
     7     7     8   ar
     8     8     9   ar
     9     9    10   ar
    10    10    11   ar
    11    12     7   ar
    12     8    13    1
    13     9    14    1
    14    10    15    1
    15    11    12   ar
    16    11    16    1
    17    12    17    1
