@<TRIPOS>MOLECULE
*****
 19 18 0 0 0
SMALL
GASTEIGER

@<TRIPOS>ATOM
      1 C         -16.8914    9.1664   -0.2939 C.2     1  UNL1       -0.0925
      2 C         -15.6555    8.6617   -0.2277 C.2     1  UNL1       -0.0357
      3 H         -17.3654    9.6433    0.5588 H       1  UNL1        0.0540
      4 H         -17.4620    9.1112   -1.2149 H       1  UNL1        0.0540
      5 S         -14.7374    8.7409    1.2345 S.3     1  UNL1       -0.1333
      6 H         -15.2218    8.1914   -1.1056 H       1  UNL1        0.0684
      7 C         -13.1723    7.9645    0.7113 C.3     1  UNL1        0.0001
      8 C         -12.2865    8.8652   -0.1681 C.3     1  UNL1       -0.0374
      9 H         -13.4077    7.0298    0.1893 H       1  UNL1        0.0382
     10 H         -12.6286    7.6875    1.6218 H       1  UNL1        0.0382
     11 C         -11.7868   10.1074    0.5748 C.3     1  UNL1       -0.0619
     12 H         -11.1122   10.6922   -0.0601 H       1  UNL1        0.0233
     13 H         -11.2395    9.8328    1.4830 H       1  UNL1        0.0233
     14 H         -12.6126   10.7657    0.8607 H       1  UNL1        0.0233
     15 C         -11.0876    8.0590   -0.6776 C.3     1  UNL1       -0.0619
     16 H         -12.8549    9.1945   -1.0469 H       1  UNL1        0.0303
     17 H         -11.4204    7.1883   -1.2526 H       1  UNL1        0.0233
     18 H         -10.4672    7.7017    0.1514 H       1  UNL1        0.0233
     19 H         -10.4580    8.6695   -1.3338 H       1  UNL1        0.0233
@<TRIPOS>BOND
     1     1     2    2
     2     1     3    1
     3     1     4    1
     4     2     5    1
     5     2     6    1
     6     5     7    1
     7     7     8    1
     8     7     9    1
     9     7    10    1
    10     8    11    1
    11    11    12    1
    12    11    13    1
    13    11    14    1
    14     8    15    1
    15     8    16    1
    16    15    17    1
    17    15    18    1
    18    15    19    1
