@<TRIPOS>MOLECULE
*****
 6 5 0 0 0
SMALL
GASTEIGER

@<TRIPOS>ATOM
      1 C          -3.9887    2.9013    0.0002 C.2     1  UNL1       -0.0876
      2 C          -2.6591    2.9155    0.0912 C.2     1  UNL1       -0.0025
      3 H          -4.5845    3.6653    0.4875 H       1  UNL1        0.0543
      4 H          -4.5117    2.1322   -0.5590 H       1  UNL1        0.0543
      5 CL         -1.6668    1.7377   -0.6557 Cl      1  UNL1       -0.0925
      6 H          -2.0917    3.6593    0.6358 H       1  UNL1        0.0740
@<TRIPOS>BOND
     1     1     2    2
     2     1     3    1
     3     1     4    1
     4     2     5    1
     5     2     6    1
